
*** ChampSim Multicore Out-of-Order Simulator ***

Warmup Instructions: 25000000
Simulation Instructions: 25000000
Number of CPUs: 1
LLC sets: 2048
LLC ways: 16
Off-chip DRAM Size: 4096 MB Channels: 1 Width: 64-bit Data Rate: 6400 MT/s
CPU 0 runs ../traces/trace2.champsimtrace.xz
.xz
CPU 0 Bimodal branch predictor
BTB has LRU replacement policy
ITLB has LRU replacement policy
DTLB has LRU replacement policy
STLB has LRU replacement policy
L1I has LRU replacement policy
CPU 0 L1D Next-line prefetcher
L1D has LRU replacement policy
L2C has LRU replacement policy
LLC has LRU replacement policy
Heartbeat CPU 0 instructions: 10000002 cycles: 3733871 heartbeat IPC: 2.67819 cumulative IPC: 2.67819 (Simulation time: 0 hr 0 min 22 sec) 
Heartbeat CPU 0 instructions: 20000001 cycles: 7469038 heartbeat IPC: 2.67726 cumulative IPC: 2.67772 (Simulation time: 0 hr 0 min 38 sec) 

Warmup complete CPU 0 instructions: 25000001 cycles: 9335667 (Simulation time: 0 hr 0 min 46 sec) 

Heartbeat CPU 0 instructions: 30000001 cycles: 22995031 heartbeat IPC: 0.644081 cumulative IPC: 0.366049 (Simulation time: 0 hr 1 min 0 sec) 
Heartbeat CPU 0 instructions: 40000002 cycles: 50029208 heartbeat IPC: 0.369902 cumulative IPC: 0.368609 (Simulation time: 0 hr 1 min 28 sec) 
Heartbeat CPU 0 instructions: 50000000 cycles: 76605274 heartbeat IPC: 0.376278 cumulative IPC: 0.371639 (Simulation time: 0 hr 1 min 55 sec) 
Finished CPU 0 instructions: 25000000 cycles: 67269629 cumulative IPC: 0.371639 (Simulation time: 0 hr 1 min 55 sec) 

ChampSim completed all CPUs

Region of Interest Statistics

CPU 0 cumulative IPC: 0.371639 instructions: 25000000 cycles: 67269629
ITLB TOTAL     ACCESS:    4558037  HIT:    4558037  MISS:          0  HIT %:        100  MISS %:          0   MPKI: 0
ITLB LOAD TRANSLATION ACCESS:    4558037  HIT:    4558037  MISS:          0  HIT %:        100  MISS %:          0   MPKI: 0
ITLB PREFETCH  REQUESTED:          0  ISSUED:          0  USEFUL:          0  USELESS:          0
ITLB USEFUL LOAD PREFETCHES:          0 PREFETCH ISSUED TO LOWER LEVEL:          0  ACCURACY: -nan
ITLB TIMELY PREFETCHES:          0 LATE PREFETCHES: 0 DROPPED PREFETCHES: 0
ITLB PREFETCHES SAME FILL-ORIGIN LEVEL: 0 DIFFERENT FILL-ORIGIN LEVEL: 0
ITLB AVERAGE MISS LATENCY: -nan cycles
ITLB RQ	ACCESS:    4643449	FORWARD:          0	MERGED:      85413	TO_CACHE:    4558036

DTLB TOTAL     ACCESS:    3869360  HIT:    3835346  MISS:      34014  HIT %:    99.1209  MISS %:    0.87906   MPKI: 1.36056
DTLB LOAD TRANSLATION ACCESS:    3869360  HIT:    3835346  MISS:      34014  HIT %:    99.1209  MISS %:    0.87906   MPKI: 1.36056
DTLB PREFETCH  REQUESTED:          0  ISSUED:          0  USEFUL:          0  USELESS:          0
DTLB USEFUL LOAD PREFETCHES:          0 PREFETCH ISSUED TO LOWER LEVEL:          0  ACCURACY: -nan
DTLB TIMELY PREFETCHES:          0 LATE PREFETCHES: 0 DROPPED PREFETCHES: 0
DTLB PREFETCHES SAME FILL-ORIGIN LEVEL: 0 DIFFERENT FILL-ORIGIN LEVEL: 0
DTLB AVERAGE MISS LATENCY: 107.739 cycles
DTLB RQ	ACCESS:    4554056	FORWARD:          0	MERGED:     684567	TO_CACHE:    3869489

STLB TOTAL     ACCESS:    3055133  HIT:    3022480  MISS:      32653  HIT %:    98.9312  MISS %:    1.06879   MPKI: 1.30612
STLB LOAD TRANSLATION ACCESS:      34014  HIT:       1361  MISS:      32653  HIT %:    4.00129  MISS %:    95.9987   MPKI: 1.30612
STLB TRANSLATION FROM L1D PREFETCHER ACCESS:    3021119  HIT:    3021119  MISS:          0  HIT %:        100  MISS %:          0   MPKI: 0
STLB PREFETCH  REQUESTED:          0  ISSUED:          0  USEFUL:          0  USELESS:          0
STLB USEFUL LOAD PREFETCHES:          0 PREFETCH ISSUED TO LOWER LEVEL:          0  ACCURACY: -nan
STLB TIMELY PREFETCHES:          0 LATE PREFETCHES: 0 DROPPED PREFETCHES: 0
STLB PREFETCHES SAME FILL-ORIGIN LEVEL: 0 DIFFERENT FILL-ORIGIN LEVEL: 0
STLB AVERAGE MISS LATENCY: 102.843 cycles
STLB RQ	ACCESS:   14602072	FORWARD:          0	MERGED:   11546939	TO_CACHE:    3055133

STLB Hit, L1D data hit: 0
STLB Hit, L2C data hit: 0
STLB Hit, LLC data hit: 0
STLB Hit, LLC data miss: 0
STLB STLB hints to L2: 0
L1D TOTAL     ACCESS:   11307064  HIT:    9475585  MISS:    1831479  HIT %:    83.8023  MISS %:    16.1977   MPKI: 73.2592
L1D LOAD      ACCESS:    4206810  HIT:    3928176  MISS:     278634  HIT %:    93.3766  MISS %:     6.6234   MPKI: 11.1454
L1D RFO       ACCESS:     333322  HIT:     333309  MISS:         13  HIT %:    99.9961  MISS %: 0.00390013   MPKI: 0.00052
L1D PREFETCH  ACCESS:    6766932  HIT:    5214100  MISS:    1552832  HIT %:    77.0526  MISS %:    22.9474   MPKI: 62.1133
AGUS PREFETCH L1 MISS: 0
L1D PREFETCH  REQUESTED:   34756658  ISSUED:   34727535  USEFUL:    1476084  USELESS:      76757
L1D USEFUL LOAD PREFETCHES:    1476084 PREFETCH ISSUED TO LOWER LEVEL:    1788406  ACCURACY: 82.5363
L1D TIMELY PREFETCHES:    1476084 LATE PREFETCHES: 235574 DROPPED PREFETCHES: 0
L1D PREFETCHES SAME FILL-ORIGIN LEVEL: 1788406 DIFFERENT FILL-ORIGIN LEVEL: 0
L1D AVERAGE MISS LATENCY: 5.5789e+06 cycles
L1D RQ	ACCESS:    8972945	FORWARD:          0	MERGED:    4750658	TO_CACHE:    4220730
L1D WQ	ACCESS:     370377	FORWARD:       1557	MERGED:      37051	TO_CACHE:     333326
L1D PQ	ACCESS:   20159477	FORWARD:          0	MERGED:    5591419	TO_CACHE:   14568058

L1D UNIQUE REGIONS ACCESSED: 0
L1D REGIONS CONFLICTS: 0
L1D Cross Page Prefetch Requests: 0
L1D Same Page Prefetch Requests: 51223657
L1D ROI Sum of L1D PQ occupancy: 204589762
L1D PREFETCHES PUSHED FROM L2C: 0
L1I TOTAL     ACCESS:    4643449  HIT:    4643449  MISS:          0  HIT %:        100  MISS %:          0   MPKI: 0
L1I LOAD      ACCESS:    4643449  HIT:    4643449  MISS:          0  HIT %:        100  MISS %:          0   MPKI: 0
L1I PREFETCH  REQUESTED:          0  ISSUED:          0  USEFUL:          0  USELESS:          0
L1I USEFUL LOAD PREFETCHES:          0 PREFETCH ISSUED TO LOWER LEVEL:          0  ACCURACY: -nan
L1I TIMELY PREFETCHES:          0 LATE PREFETCHES: 0 DROPPED PREFETCHES: 0
L1I PREFETCHES SAME FILL-ORIGIN LEVEL: 0 DIFFERENT FILL-ORIGIN LEVEL: 0
L1I AVERAGE MISS LATENCY: -nan cycles
L1I RQ	ACCESS:    6968729	FORWARD:          0	MERGED:    2325280	TO_CACHE:    4643449

BTB TOTAL     ACCESS:    5953193  HIT:    5953095  MISS:         98  HIT %:    99.9984  MISS %: 0.00164618   MPKI: 0.00392
BTB BRANCH_DIRECT_JUMP	ACCESS:      85874  HIT:      85848  MISS:         26
BTB BRANCH_INDIRECT	ACCESS:          0  HIT:          0  MISS:          0
BTB BRANCH_CONDITIONAL	ACCESS:    5783213  HIT:    5783164  MISS:         49
BTB BRANCH_DIRECT_CALL	ACCESS:      42053  HIT:      42043  MISS:         10
BTB BRANCH_INDIRECT_CALL	ACCESS:          0  HIT:          0  MISS:          0
BTB BRANCH_RETURN	ACCESS:      42053  HIT:      42040  MISS:         13
BTB BRANCH_OTHER ACCESS:          0  HIT:          0  MISS:          0

L2C TOTAL     ACCESS:    1867557  HIT:      66719  MISS:    1800838  HIT %:    3.57253  MISS %:    96.4275   MPKI: 72.0335
L2C LOAD      ACCESS:      43060  HIT:       5757  MISS:      37303  HIT %:    13.3697  MISS %:    86.6303   MPKI: 1.49212
L2C DATA LOAD MPKI: 1.49212
L2C INSTRUCTION LOAD MPKI: 0
L2C RFO       ACCESS:         13  HIT:          0  MISS:         13  HIT %:          0  MISS %:        100   MPKI: 0.00052
L2C PREFETCH  ACCESS:    1788406  HIT:      32338  MISS:    1756068  HIT %:     1.8082  MISS %:    98.1918   MPKI: 70.2427
AGUS PREFETCH L1 MISS: 0
L2C DATA PREFETCH MPKI: 70.2427
L2C INSTRUCTION PREFETCH MPKI: 0
L2C WRITEBACK ACCESS:       2812  HIT:       2796  MISS:         16  HIT %:     99.431  MISS %:    0.56899   MPKI: 0.00064
L2C LOAD TRANSLATION ACCESS:      33266  HIT:      25828  MISS:       7438  HIT %:    77.6408  MISS %:    22.3592   MPKI: 0.29752
L2C PREFETCH  REQUESTED:          0  ISSUED:          0  USEFUL:       1702  USELESS:    1753918
L2C USEFUL LOAD PREFETCHES:       1702 PREFETCH ISSUED TO LOWER LEVEL:    1756068  ACCURACY: 0.0969211
L2C TIMELY PREFETCHES:       1702 LATE PREFETCHES: 0 DROPPED PREFETCHES: 0
L2C PREFETCHES SAME FILL-ORIGIN LEVEL: 0 DIFFERENT FILL-ORIGIN LEVEL: 0
L2C AVERAGE MISS LATENCY: 107.873 cycles
L2C RQ	ACCESS:      76339	FORWARD:          0	MERGED:          0	TO_CACHE:      76339
L2C WQ	ACCESS:       2812	FORWARD:          0	MERGED:          0	TO_CACHE:       2812
L2C PQ	ACCESS:    1788406	FORWARD:          0	MERGED:          0	TO_CACHE:    1788406

L2C Instructions Evicting Data 0
L2C Translations Evicting Data 7419
L2C Data Evicting Data 1785976
L2C Instructions Evicting Instructions 0
L2C Translations Evicting Instructions 0
L2C Data Evicting Instructions 0
L2C Instructions Evicting Translations 0
L2C Translations Evicting Translations 19
L2C Data Evicting Translations 7408
L2C Dense regions hint from L2: 0
PSCL5 TOTAL     ACCESS:      32653  HIT:      32653  MISS:          0  HIT %:        100  MISS %:          0   MPKI: 0
PSCL5 LOAD TRANSLATION ACCESS:      32653  HIT:      32653  MISS:          0  HIT %:        100  MISS %:          0   MPKI: 0
PSCL5 PREFETCH  REQUESTED:          0  ISSUED:          0  USEFUL:          0  USELESS:          0
PSCL5 USEFUL LOAD PREFETCHES:          0 PREFETCH ISSUED TO LOWER LEVEL:          0  ACCURACY: -nan
PSCL5 TIMELY PREFETCHES:          0 LATE PREFETCHES: 0 DROPPED PREFETCHES: 0
PSCL5 PREFETCHES SAME FILL-ORIGIN LEVEL: 0 DIFFERENT FILL-ORIGIN LEVEL: 0

PSCL4 TOTAL     ACCESS:      32653  HIT:      32653  MISS:          0  HIT %:        100  MISS %:          0   MPKI: 0
PSCL4 LOAD TRANSLATION ACCESS:      32653  HIT:      32653  MISS:          0  HIT %:        100  MISS %:          0   MPKI: 0
PSCL4 PREFETCH  REQUESTED:          0  ISSUED:          0  USEFUL:          0  USELESS:          0
PSCL4 USEFUL LOAD PREFETCHES:          0 PREFETCH ISSUED TO LOWER LEVEL:          0  ACCURACY: -nan
PSCL4 TIMELY PREFETCHES:          0 LATE PREFETCHES: 0 DROPPED PREFETCHES: 0
PSCL4 PREFETCHES SAME FILL-ORIGIN LEVEL: 0 DIFFERENT FILL-ORIGIN LEVEL: 0

PSCL3 TOTAL     ACCESS:      32653  HIT:      32653  MISS:          0  HIT %:        100  MISS %:          0   MPKI: 0
PSCL3 LOAD TRANSLATION ACCESS:      32653  HIT:      32653  MISS:          0  HIT %:        100  MISS %:          0   MPKI: 0
PSCL3 PREFETCH  REQUESTED:          0  ISSUED:          0  USEFUL:          0  USELESS:          0
PSCL3 USEFUL LOAD PREFETCHES:          0 PREFETCH ISSUED TO LOWER LEVEL:          0  ACCURACY: -nan
PSCL3 TIMELY PREFETCHES:          0 LATE PREFETCHES: 0 DROPPED PREFETCHES: 0
PSCL3 PREFETCHES SAME FILL-ORIGIN LEVEL: 0 DIFFERENT FILL-ORIGIN LEVEL: 0

PSCL2 TOTAL     ACCESS:      32653  HIT:      31942  MISS:        711  HIT %:    97.8226  MISS %:    2.17744   MPKI: 0.02844
PSCL2 LOAD TRANSLATION ACCESS:      32653  HIT:      31942  MISS:        711  HIT %:    97.8226  MISS %:    2.17744   MPKI: 0.02844
PSCL2 PREFETCH  REQUESTED:          0  ISSUED:          0  USEFUL:          0  USELESS:          0
PSCL2 USEFUL LOAD PREFETCHES:          0 PREFETCH ISSUED TO LOWER LEVEL:          0  ACCURACY: -nan
PSCL2 TIMELY PREFETCHES:          0 LATE PREFETCHES: 0 DROPPED PREFETCHES: 0
PSCL2 PREFETCHES SAME FILL-ORIGIN LEVEL: 0 DIFFERENT FILL-ORIGIN LEVEL: 0

LLC TOTAL     ACCESS:    1803592  HIT:       5585  MISS:    1798007  HIT %:    0.30966  MISS %:    99.6903   MPKI: 71.9203
LLC LOAD      ACCESS:      37303  HIT:        520  MISS:      36783  HIT %:    1.39399  MISS %:     98.606   MPKI: 1.47132
LLC RFO       ACCESS:         13  HIT:          0  MISS:         13  HIT %:          0  MISS %:        100   MPKI: 0.00052
LLC PREFETCH  ACCESS:    1756068  HIT:       1973  MISS:    1754095  HIT %:   0.112353  MISS %:    99.8876   MPKI: 70.1638
AGUS PREFETCH L1 MISS: 0
LLC WRITEBACK ACCESS:       2770  HIT:       2765  MISS:          5  HIT %:    99.8195  MISS %:   0.180505   MPKI: 0.0002
LLC LOAD TRANSLATION ACCESS:       7438  HIT:        327  MISS:       7111  HIT %:    4.39634  MISS %:    95.6037   MPKI: 0.28444
LLC PREFETCH  REQUESTED:          0  ISSUED:          0  USEFUL:         37  USELESS:    1752371
LLC USEFUL LOAD PREFETCHES:         37 PREFETCH ISSUED TO LOWER LEVEL:    1754095  ACCURACY: 0.00210935
LLC TIMELY PREFETCHES:         37 LATE PREFETCHES: 0 DROPPED PREFETCHES: 0
LLC PREFETCHES SAME FILL-ORIGIN LEVEL: 0 DIFFERENT FILL-ORIGIN LEVEL: 0
LLC AVERAGE MISS LATENCY: 77.8957 cycles
LLC RQ	ACCESS:      44754	FORWARD:          0	MERGED:          0	TO_CACHE:      44754
LLC WQ	ACCESS:       2770	FORWARD:          0	MERGED:          0	TO_CACHE:       2770
LLC PQ	ACCESS:    1756068	FORWARD:          0	MERGED:          0	TO_CACHE:    1756068

LLC Dense regions hint to LLC: 0

RAW hits: 4002
Loads Generated: 8976947
Loads sent to L1D: 8972945
Stores Generated: 370377
Stores sent to L1D: 370377
Major fault: 0 Minor fault: 48857
Allocated PAGES: 48857
CPU 0 L1D nextline prefetcher final stats
Degree: 5

DRAM Statistics
 CHANNEL 0
 RQ ROW_BUFFER_HIT:    1672887  ROW_BUFFER_MISS:     125115
 DBUS_CONGESTED:        369
 WQ ROW_BUFFER_HIT:        462  ROW_BUFFER_MISS:       2304  FULL:          0

 AVG_CONGESTED_CYCLE: 4
 All warmup complete: 2
Channel 0 Bank busy for read cycles: 0
Channel 0 Bank busy for write cycles: 0
Channel 0
Rank 0
0banks busy for read cycles: 16453433
0banks busy for write cycles: 1274
1banks busy for read cycles: 13990858
1banks busy for write cycles: 303674
2banks busy for read cycles: 27980487
2banks busy for write cycles: 138396
3banks busy for read cycles: 4987372
3banks busy for write cycles: 49767
4banks busy for read cycles: 912770
4banks busy for write cycles: 30860
5banks busy for read cycles: 692150
5banks busy for write cycles: 12840
6banks busy for read cycles: 1564661
6banks busy for write cycles: 5252
7banks busy for read cycles: 120199
7banks busy for write cycles: 3969
8banks busy for read cycles: 19967
8banks busy for write cycles: 1701

CPU 0 Branch Prediction Accuracy: 99.1323% MPKI: 3.09396 Average ROB Occupancy at Mispredict: 107.671
Branch types
NOT_BRANCH: 16085563 64.3423%
BRANCH_DIRECT_JUMP: 85874 0.343496%
BRANCH_INDIRECT: 0 0%
BRANCH_CONDITIONAL: 8744101 34.9764%
BRANCH_DIRECT_CALL: 42053 0.168212%
BRANCH_INDIRECT_CALL: 0 0%
BRANCH_RETURN: 42053 0.168212%
BRANCH_OTHER: 0 0%

DRAM PAGES: 1048576
Allocated PAGES: 48857
