
*** ChampSim Multicore Out-of-Order Simulator ***

Warmup Instructions: 25000000
Simulation Instructions: 25000000
Number of CPUs: 1
LLC sets: 2048
LLC ways: 16
Off-chip DRAM Size: 4096 MB Channels: 1 Width: 64-bit Data Rate: 6400 MT/s
CPU 0 runs ../traces/trace1.champsimtrace.xz
.xz
CPU 0 Bimodal branch predictor
BTB has LRU replacement policy
ITLB has LRU replacement policy
DTLB has LRU replacement policy
CPU 0 STLB arbitrary stride prefetcher
STLB has LRU replacement policy
L1I has LRU replacement policy
L1D has LRU replacement policy
L2C has LRU replacement policy
LLC has LRU replacement policy
Heartbeat CPU 0 instructions: 10000003 cycles: 2823358 heartbeat IPC: 3.54188 cumulative IPC: 3.54188 (Simulation time: 0 hr 0 min 14 sec) 
Heartbeat CPU 0 instructions: 20000003 cycles: 5637079 heartbeat IPC: 3.55401 cumulative IPC: 3.54794 (Simulation time: 0 hr 0 min 28 sec) 

Warmup complete CPU 0 instructions: 25000004 cycles: 7049174 (Simulation time: 0 hr 0 min 36 sec) 

Heartbeat CPU 0 instructions: 30000002 cycles: 23958775 heartbeat IPC: 0.545801 cumulative IPC: 0.29569 (Simulation time: 0 hr 0 min 52 sec) 
Heartbeat CPU 0 instructions: 40000001 cycles: 60148782 heartbeat IPC: 0.276319 cumulative IPC: 0.282488 (Simulation time: 0 hr 1 min 27 sec) 
Heartbeat CPU 0 instructions: 50000003 cycles: 95169963 heartbeat IPC: 0.285542 cumulative IPC: 0.283701 (Simulation time: 0 hr 2 min 2 sec) 
Finished CPU 0 instructions: 25000003 cycles: 88120790 cumulative IPC: 0.283702 (Simulation time: 0 hr 2 min 2 sec) 

ChampSim completed all CPUs

Region of Interest Statistics

CPU 0 cumulative IPC: 0.283702 instructions: 25000003 cycles: 88120790
ITLB TOTAL     ACCESS:    4441770  HIT:    4441770  MISS:          0  HIT %:        100  MISS %:          0   MPKI: 0
ITLB LOAD TRANSLATION ACCESS:    4441770  HIT:    4441770  MISS:          0  HIT %:        100  MISS %:          0   MPKI: 0
ITLB PREFETCH  REQUESTED:          0  ISSUED:          0  USEFUL:          0  USELESS:          0
ITLB USEFUL LOAD PREFETCHES:          0 PREFETCH ISSUED TO LOWER LEVEL:          0  ACCURACY: -nan
ITLB TIMELY PREFETCHES:          0 LATE PREFETCHES: 0 DROPPED PREFETCHES: 0
ITLB PREFETCHES SAME FILL-ORIGIN LEVEL: 0 DIFFERENT FILL-ORIGIN LEVEL: 0
ITLB AVERAGE MISS LATENCY: -nan cycles
ITLB RQ	ACCESS:    4794537	FORWARD:          0	MERGED:     352768	TO_CACHE:    4441769

DTLB TOTAL     ACCESS:    3719132  HIT:    3056234  MISS:     662898  HIT %:     82.176  MISS %:     17.824   MPKI: 26.5159
DTLB LOAD TRANSLATION ACCESS:    3719132  HIT:    3056234  MISS:     662898  HIT %:     82.176  MISS %:     17.824   MPKI: 26.5159
DTLB PREFETCH  REQUESTED:          0  ISSUED:          0  USEFUL:          0  USELESS:          0
DTLB USEFUL LOAD PREFETCHES:          0 PREFETCH ISSUED TO LOWER LEVEL:          0  ACCURACY: -nan
DTLB TIMELY PREFETCHES:          0 LATE PREFETCHES: 0 DROPPED PREFETCHES: 0
DTLB PREFETCHES SAME FILL-ORIGIN LEVEL: 0 DIFFERENT FILL-ORIGIN LEVEL: 0
DTLB AVERAGE MISS LATENCY: 51.6754 cycles
DTLB RQ	ACCESS:    4318823	FORWARD:          0	MERGED:     592315	TO_CACHE:    3726508

STLB TOTAL     ACCESS:     848599  HIT:     160937  MISS:     687662  HIT %:     18.965  MISS %:     81.035   MPKI: 27.5065
STLB LOAD TRANSLATION ACCESS:     662898  HIT:     118581  MISS:     544317  HIT %:    17.8883  MISS %:    82.1117   MPKI: 21.7727
STLB PREFETCH TRANSLATION ACCESS:     185701  HIT:      42356  MISS:     143345  HIT %:    22.8087  MISS %:    77.1913   MPKI: 5.7338
STLB PREFETCH  REQUESTED:     205448  ISSUED:     205448  USEFUL:      18529  USELESS:     125003
STLB USEFUL LOAD PREFETCHES:      18529 PREFETCH ISSUED TO LOWER LEVEL:     154633  ACCURACY: 11.9826
STLB TIMELY PREFETCHES:      18529 LATE PREFETCHES: 5701 DROPPED PREFETCHES: 5585
STLB PREFETCHES SAME FILL-ORIGIN LEVEL: 154633 DIFFERENT FILL-ORIGIN LEVEL: 0
STLB AVERAGE MISS LATENCY: 63.4084 cycles
STLB RQ	ACCESS:     662899	FORWARD:          0	MERGED:          0	TO_CACHE:     662899
STLB PQ	ACCESS:     205448	FORWARD:          0	MERGED:         32	TO_CACHE:     205416

STLB Hit, L1D data hit: 0
STLB Hit, L2C data hit: 0
STLB Hit, LLC data hit: 0
STLB Hit, LLC data miss: 0
STLB STLB hints to L2: 0
L1D TOTAL     ACCESS:    4297059  HIT:    3091819  MISS:    1205240  HIT %:     71.952  MISS %:     28.048   MPKI: 48.2096
L1D LOAD      ACCESS:    3188394  HIT:    2052518  MISS:    1135876  HIT %:    64.3747  MISS %:    35.6253   MPKI: 45.435
L1D RFO       ACCESS:    1108665  HIT:    1039301  MISS:      69364  HIT %:    93.7435  MISS %:    6.25653   MPKI: 2.77456
L1D PREFETCH  REQUESTED:          0  ISSUED:          0  USEFUL:          0  USELESS:          0
L1D USEFUL LOAD PREFETCHES:          0 PREFETCH ISSUED TO LOWER LEVEL:          0  ACCURACY: -nan
L1D TIMELY PREFETCHES:          0 LATE PREFETCHES: 0 DROPPED PREFETCHES: 0
L1D PREFETCHES SAME FILL-ORIGIN LEVEL: 0 DIFFERENT FILL-ORIGIN LEVEL: 0
L1D AVERAGE MISS LATENCY: 124.672 cycles
L1D RQ	ACCESS:    6159928	FORWARD:          0	MERGED:    2886852	TO_CACHE:    3210156
L1D WQ	ACCESS:    1108674	FORWARD:      62920	MERGED:          7	TO_CACHE:    1108667

L1D UNIQUE REGIONS ACCESSED: 0
L1D REGIONS CONFLICTS: 0
L1D Cross Page Prefetch Requests: 0
L1D Same Page Prefetch Requests: 0
L1D ROI Sum of L1D PQ occupancy: 0
L1D PREFETCHES PUSHED FROM L2C: 0
L1I TOTAL     ACCESS:    4794537  HIT:    4794537  MISS:          0  HIT %:        100  MISS %:          0   MPKI: 0
L1I LOAD      ACCESS:    4794537  HIT:    4794537  MISS:          0  HIT %:        100  MISS %:          0   MPKI: 0
L1I PREFETCH  REQUESTED:          0  ISSUED:          0  USEFUL:          0  USELESS:          0
L1I USEFUL LOAD PREFETCHES:          0 PREFETCH ISSUED TO LOWER LEVEL:          0  ACCURACY: -nan
L1I TIMELY PREFETCHES:          0 LATE PREFETCHES: 0 DROPPED PREFETCHES: 0
L1I PREFETCHES SAME FILL-ORIGIN LEVEL: 0 DIFFERENT FILL-ORIGIN LEVEL: 0
L1I AVERAGE MISS LATENCY: -nan cycles
L1I RQ	ACCESS:    7107734	FORWARD:          0	MERGED:    2313197	TO_CACHE:    4794537

BTB TOTAL     ACCESS:    3283963  HIT:    3283955  MISS:          8  HIT %:    99.9998  MISS %: 0.000243608   MPKI: 0.00032
BTB BRANCH_DIRECT_JUMP	ACCESS:     568310  HIT:     568308  MISS:          2
BTB BRANCH_INDIRECT	ACCESS:          0  HIT:          0  MISS:          0
BTB BRANCH_CONDITIONAL	ACCESS:    1606985  HIT:    1606981  MISS:          4
BTB BRANCH_DIRECT_CALL	ACCESS:     554334  HIT:     554333  MISS:          1
BTB BRANCH_INDIRECT_CALL	ACCESS:          0  HIT:          0  MISS:          0
BTB BRANCH_RETURN	ACCESS:     554334  HIT:     554333  MISS:          1
BTB BRANCH_OTHER ACCESS:          0  HIT:          0  MISS:          0

L2C TOTAL     ACCESS:    2533378  HIT:    1500598  MISS:    1032780  HIT %:    59.2331  MISS %:    40.7669   MPKI: 41.3112
L2C LOAD      ACCESS:    1135876  HIT:     417876  MISS:     718000  HIT %:    36.7889  MISS %:    63.2111   MPKI: 28.72
L2C DATA LOAD MPKI: 28.72
L2C INSTRUCTION LOAD MPKI: 0
L2C RFO       ACCESS:      69364  HIT:      41957  MISS:      27407  HIT %:    60.4881  MISS %:    39.5119   MPKI: 1.09628
L2C WRITEBACK ACCESS:     554349  HIT:     554349  MISS:          0  HIT %:        100  MISS %:          0   MPKI: 0
L2C LOAD TRANSLATION ACCESS:     600029  HIT:     369106  MISS:     230923  HIT %:    61.5147  MISS %:    38.4853   MPKI: 9.23692
L2C PREFETCH TRANSLATION ACCESS:     173760  HIT:     117310  MISS:      56450  HIT %:    67.5127  MISS %:    32.4873   MPKI: 2.258
L2C PREFETCH  REQUESTED:          0  ISSUED:          0  USEFUL:      39732  USELESS:      16806
L2C USEFUL LOAD PREFETCHES:      39732 PREFETCH ISSUED TO LOWER LEVEL:          0  ACCURACY: inf
L2C TIMELY PREFETCHES:      39732 LATE PREFETCHES: 0 DROPPED PREFETCHES: 0
L2C PREFETCHES SAME FILL-ORIGIN LEVEL: 0 DIFFERENT FILL-ORIGIN LEVEL: 0
L2C AVERAGE MISS LATENCY: 137.424 cycles
L2C RQ	ACCESS:    1979032	FORWARD:          0	MERGED:          0	TO_CACHE:    1979032
L2C WQ	ACCESS:     554349	FORWARD:          0	MERGED:          0	TO_CACHE:     554349

L2C Instructions Evicting Data 0
L2C Translations Evicting Data 161572
L2C Data Evicting Data 583697
L2C Instructions Evicting Instructions 0
L2C Translations Evicting Instructions 0
L2C Data Evicting Instructions 0
L2C Instructions Evicting Translations 0
L2C Translations Evicting Translations 125801
L2C Data Evicting Translations 161710
L2C Dense regions hint from L2: 0
PSCL5 TOTAL     ACCESS:     693249  HIT:     693249  MISS:          0  HIT %:        100  MISS %:          0   MPKI: 0
PSCL5 LOAD TRANSLATION ACCESS:     538617  HIT:     538617  MISS:          0  HIT %:        100  MISS %:          0   MPKI: 0
PSCL5 PREFETCH TRANSLATION ACCESS:     154632  HIT:     154632  MISS:          0  HIT %:        100  MISS %:          0   MPKI: 0
PSCL5 PREFETCH  REQUESTED:          0  ISSUED:          0  USEFUL:          0  USELESS:          0
PSCL5 USEFUL LOAD PREFETCHES:          0 PREFETCH ISSUED TO LOWER LEVEL:          0  ACCURACY: -nan
PSCL5 TIMELY PREFETCHES:          0 LATE PREFETCHES: 0 DROPPED PREFETCHES: 0
PSCL5 PREFETCHES SAME FILL-ORIGIN LEVEL: 0 DIFFERENT FILL-ORIGIN LEVEL: 0

PSCL4 TOTAL     ACCESS:     693249  HIT:     693249  MISS:          0  HIT %:        100  MISS %:          0   MPKI: 0
PSCL4 LOAD TRANSLATION ACCESS:     538617  HIT:     538617  MISS:          0  HIT %:        100  MISS %:          0   MPKI: 0
PSCL4 PREFETCH TRANSLATION ACCESS:     154632  HIT:     154632  MISS:          0  HIT %:        100  MISS %:          0   MPKI: 0
PSCL4 PREFETCH  REQUESTED:          0  ISSUED:          0  USEFUL:          0  USELESS:          0
PSCL4 USEFUL LOAD PREFETCHES:          0 PREFETCH ISSUED TO LOWER LEVEL:          0  ACCURACY: -nan
PSCL4 TIMELY PREFETCHES:          0 LATE PREFETCHES: 0 DROPPED PREFETCHES: 0
PSCL4 PREFETCHES SAME FILL-ORIGIN LEVEL: 0 DIFFERENT FILL-ORIGIN LEVEL: 0

PSCL3 TOTAL     ACCESS:     693249  HIT:     693249  MISS:          0  HIT %:        100  MISS %:          0   MPKI: 0
PSCL3 LOAD TRANSLATION ACCESS:     538617  HIT:     538617  MISS:          0  HIT %:        100  MISS %:          0   MPKI: 0
PSCL3 PREFETCH TRANSLATION ACCESS:     154632  HIT:     154632  MISS:          0  HIT %:        100  MISS %:          0   MPKI: 0
PSCL3 PREFETCH  REQUESTED:          0  ISSUED:          0  USEFUL:          0  USELESS:          0
PSCL3 USEFUL LOAD PREFETCHES:          0 PREFETCH ISSUED TO LOWER LEVEL:          0  ACCURACY: -nan
PSCL3 TIMELY PREFETCHES:          0 LATE PREFETCHES: 0 DROPPED PREFETCHES: 0
PSCL3 PREFETCHES SAME FILL-ORIGIN LEVEL: 0 DIFFERENT FILL-ORIGIN LEVEL: 0

PSCL2 TOTAL     ACCESS:     690593  HIT:     612376  MISS:      78217  HIT %:    88.6739  MISS %:    11.3261   MPKI: 3.12868
PSCL2 LOAD TRANSLATION ACCESS:     555422  HIT:     477205  MISS:      78217  HIT %:    85.9176  MISS %:    14.0824   MPKI: 3.12868
PSCL2 PREFETCH TRANSLATION ACCESS:     135171  HIT:     135171  MISS:          0  HIT %:        100  MISS %:          0   MPKI: 0
PSCL2 PREFETCH  REQUESTED:          0  ISSUED:          0  USEFUL:          0  USELESS:          0
PSCL2 USEFUL LOAD PREFETCHES:          0 PREFETCH ISSUED TO LOWER LEVEL:          0  ACCURACY: -nan
PSCL2 TIMELY PREFETCHES:          0 LATE PREFETCHES: 0 DROPPED PREFETCHES: 0
PSCL2 PREFETCHES SAME FILL-ORIGIN LEVEL: 0 DIFFERENT FILL-ORIGIN LEVEL: 0

LLC TOTAL     ACCESS:    1587498  HIT:     937585  MISS:     649913  HIT %:    59.0605  MISS %:    40.9395   MPKI: 25.9965
LLC LOAD      ACCESS:     718000  HIT:      76544  MISS:     641456  HIT %:    10.6607  MISS %:    89.3393   MPKI: 25.6582
LLC RFO       ACCESS:      27407  HIT:      27403  MISS:          4  HIT %:    99.9854  MISS %:  0.0145948   MPKI: 0.00016
LLC WRITEBACK ACCESS:     554718  HIT:     554718  MISS:          0  HIT %:        100  MISS %:          0   MPKI: 0
LLC LOAD TRANSLATION ACCESS:     230923  HIT:     224865  MISS:       6058  HIT %:    97.3766  MISS %:    2.62339   MPKI: 0.24232
LLC PREFETCH TRANSLATION ACCESS:      56450  HIT:      54055  MISS:       2395  HIT %:    95.7573  MISS %:    4.24269   MPKI: 0.0958
LLC PREFETCH  REQUESTED:          0  ISSUED:          0  USEFUL:       1565  USELESS:        886
LLC USEFUL LOAD PREFETCHES:       1565 PREFETCH ISSUED TO LOWER LEVEL:          0  ACCURACY: inf
LLC TIMELY PREFETCHES:       1565 LATE PREFETCHES: 0 DROPPED PREFETCHES: 0
LLC PREFETCHES SAME FILL-ORIGIN LEVEL: 0 DIFFERENT FILL-ORIGIN LEVEL: 0
LLC AVERAGE MISS LATENCY: 170.509 cycles
LLC RQ	ACCESS:    1032782	FORWARD:          0	MERGED:          0	TO_CACHE:    1032782
LLC WQ	ACCESS:     554718	FORWARD:          0	MERGED:          0	TO_CACHE:     554718

LLC Dense regions hint to LLC: 0

RAW hits: 490603
Loads Generated: 6650534
Loads sent to L1D: 6159928
Stores Generated: 1108670
Stores sent to L1D: 1108674
Major fault: 0 Minor fault: 23116
Allocated PAGES: 23116
CPU 0 STLB arbitrary stride prefetcher final stats
Degree: 2

DRAM Statistics
 CHANNEL 0
 RQ ROW_BUFFER_HIT:        754  ROW_BUFFER_MISS:     649159
 DBUS_CONGESTED:          2
 WQ ROW_BUFFER_HIT:     208795  ROW_BUFFER_MISS:     345558  FULL:          0

 AVG_CONGESTED_CYCLE: 5
 All warmup complete: 2
Channel 0 Bank busy for read cycles: 0
Channel 0 Bank busy for write cycles: 0
Channel 0
Rank 0
0banks busy for read cycles: 2682168
0banks busy for write cycles: 59671
1banks busy for read cycles: 21028195
1banks busy for write cycles: 4636922
2banks busy for read cycles: 14324274
2banks busy for write cycles: 6708231
3banks busy for read cycles: 11225334
3banks busy for write cycles: 9833583
4banks busy for read cycles: 3476469
4banks busy for write cycles: 8381209
5banks busy for read cycles: 30650
5banks busy for write cycles: 3258834
6banks busy for read cycles: 0
6banks busy for write cycles: 1315862
7banks busy for read cycles: 0
7banks busy for write cycles: 641086
8banks busy for read cycles: 0
8banks busy for write cycles: 518303

CPU 0 Branch Prediction Accuracy: 99.9685% MPKI: 0.04912 Average ROB Occupancy at Mispredict: 156.577
Branch types
NOT_BRANCH: 21105636 84.4225%
BRANCH_DIRECT_JUMP: 568310 2.27324%
BRANCH_INDIRECT: 0 0%
BRANCH_CONDITIONAL: 2217336 8.86934%
BRANCH_DIRECT_CALL: 554334 2.21734%
BRANCH_INDIRECT_CALL: 0 0%
BRANCH_RETURN: 554334 2.21734%
BRANCH_OTHER: 0 0%

DRAM PAGES: 1048576
Allocated PAGES: 23116
