
*** ChampSim Multicore Out-of-Order Simulator ***

Warmup Instructions: 25000000
Simulation Instructions: 25000000
Number of CPUs: 1
LLC sets: 2048
LLC ways: 16
Off-chip DRAM Size: 4096 MB Channels: 1 Width: 64-bit Data Rate: 6400 MT/s
CPU 0 runs ../traces/trace3.champsimtrace.xz
.xz
CPU 0 Bimodal branch predictor
BTB has LRU replacement policy
ITLB has LRU replacement policy
DTLB has LRU replacement policy
CPU 0 STLB arbitrary stride prefetcher
STLB has LRU replacement policy
L1I has LRU replacement policy
CPU 0 L1D Complex-Stride prefetcher
L1D has LRU replacement policy
L2C has LRU replacement policy
LLC has LRU replacement policy
Heartbeat CPU 0 instructions: 10000001 cycles: 3776784 heartbeat IPC: 2.64776 cumulative IPC: 2.64776 (Simulation time: 0 hr 0 min 22 sec) 
Heartbeat CPU 0 instructions: 20000000 cycles: 7526252 heartbeat IPC: 2.66704 cumulative IPC: 2.65737 (Simulation time: 0 hr 0 min 39 sec) 

Warmup complete CPU 0 instructions: 25000004 cycles: 9431578 (Simulation time: 0 hr 0 min 48 sec) 

Heartbeat CPU 0 instructions: 30000001 cycles: 39180732 heartbeat IPC: 0.315911 cumulative IPC: 0.168072 (Simulation time: 0 hr 1 min 7 sec) 
Heartbeat CPU 0 instructions: 40000002 cycles: 95770774 heartbeat IPC: 0.17671 cumulative IPC: 0.173733 (Simulation time: 0 hr 1 min 42 sec) 
Heartbeat CPU 0 instructions: 50000000 cycles: 155596486 heartbeat IPC: 0.167152 cumulative IPC: 0.17104 (Simulation time: 0 hr 2 min 18 sec) 
Finished CPU 0 instructions: 25000000 cycles: 146164910 cumulative IPC: 0.17104 (Simulation time: 0 hr 2 min 18 sec) 

ChampSim completed all CPUs

Region of Interest Statistics

CPU 0 cumulative IPC: 0.17104 instructions: 25000000 cycles: 146164910
ITLB TOTAL     ACCESS:    4040300  HIT:    4040300  MISS:          0  HIT %:        100  MISS %:          0   MPKI: 0
ITLB LOAD TRANSLATION ACCESS:    4040300  HIT:    4040300  MISS:          0  HIT %:        100  MISS %:          0   MPKI: 0
ITLB PREFETCH  REQUESTED:          0  ISSUED:          0  USEFUL:          0  USELESS:          0
ITLB USEFUL LOAD PREFETCHES:          0 PREFETCH ISSUED TO LOWER LEVEL:          0  ACCURACY: -nan
ITLB TIMELY PREFETCHES:          0 LATE PREFETCHES: 0 DROPPED PREFETCHES: 0
ITLB PREFETCHES SAME FILL-ORIGIN LEVEL: 0 DIFFERENT FILL-ORIGIN LEVEL: 0
ITLB AVERAGE MISS LATENCY: -nan cycles
ITLB RQ	ACCESS:    4091555	FORWARD:          0	MERGED:      51256	TO_CACHE:    4040299

DTLB TOTAL     ACCESS:    5226786  HIT:    3023059  MISS:    2203727  HIT %:    57.8378  MISS %:    42.1622   MPKI: 88.1491
DTLB LOAD TRANSLATION ACCESS:    5226786  HIT:    3023059  MISS:    2203727  HIT %:    57.8378  MISS %:    42.1622   MPKI: 88.1491
DTLB PREFETCH  REQUESTED:          0  ISSUED:          0  USEFUL:          0  USELESS:          0
DTLB USEFUL LOAD PREFETCHES:          0 PREFETCH ISSUED TO LOWER LEVEL:          0  ACCURACY: -nan
DTLB TIMELY PREFETCHES:          0 LATE PREFETCHES: 0 DROPPED PREFETCHES: 0
DTLB PREFETCHES SAME FILL-ORIGIN LEVEL: 0 DIFFERENT FILL-ORIGIN LEVEL: 0
DTLB AVERAGE MISS LATENCY: 11.3425 cycles
DTLB RQ	ACCESS:    5750610	FORWARD:          0	MERGED:     494718	TO_CACHE:    5255892

STLB TOTAL     ACCESS:    4218987  HIT:    4169223  MISS:      49764  HIT %:    98.8205  MISS %:    1.17952   MPKI: 1.99056
STLB LOAD TRANSLATION ACCESS:    2203727  HIT:    2165550  MISS:      38177  HIT %:    98.2676  MISS %:    1.73238   MPKI: 1.52708
STLB PREFETCH TRANSLATION ACCESS:     399004  HIT:     387417  MISS:      11587  HIT %:     97.096  MISS %:    2.90398   MPKI: 0.46348
STLB TRANSLATION FROM L1D PREFETCHER ACCESS:    1616256  HIT:    1616256  MISS:          0  HIT %:        100  MISS %:          0   MPKI: 0
STLB PREFETCH  REQUESTED:     523536  ISSUED:     518825  USEFUL:       2469  USELESS:       9149
STLB USEFUL LOAD PREFETCHES:       2469 PREFETCH ISSUED TO LOWER LEVEL:      84974  ACCURACY: 2.90559
STLB TIMELY PREFETCHES:       2469 LATE PREFETCHES: 96 DROPPED PREFETCHES: 73291
STLB PREFETCHES SAME FILL-ORIGIN LEVEL: 84974 DIFFERENT FILL-ORIGIN LEVEL: 0
STLB AVERAGE MISS LATENCY: 147.064 cycles
STLB RQ	ACCESS:    8428805	FORWARD:          0	MERGED:    4608822	TO_CACHE:    3819983
STLB PQ	ACCESS:     518825	FORWARD:          0	MERGED:      46067	TO_CACHE:     472758

STLB Hit, L1D data hit: 0
STLB Hit, L2C data hit: 0
STLB Hit, LLC data hit: 0
STLB Hit, LLC data miss: 0
STLB STLB hints to L2: 0
L1D TOTAL     ACCESS:   10369969  HIT:    5873692  MISS:    4496277  HIT %:    56.6414  MISS %:    43.3586   MPKI: 179.851
L1D LOAD      ACCESS:    5266680  HIT:    2410388  MISS:    2856292  HIT %:    45.7667  MISS %:    54.2333   MPKI: 114.252
L1D RFO       ACCESS:     425402  HIT:     418046  MISS:       7356  HIT %:    98.2708  MISS %:    1.72919   MPKI: 0.29424
L1D PREFETCH  ACCESS:    4677887  HIT:    3045258  MISS:    1632629  HIT %:     65.099  MISS %:     34.901   MPKI: 65.3052
AGUS PREFETCH L1 MISS: 0
L1D PREFETCH  REQUESTED:   16670701  ISSUED:   16526547  USEFUL:    1028604  USELESS:     603964
L1D USEFUL LOAD PREFETCHES:    1028604 PREFETCH ISSUED TO LOWER LEVEL:    1873074  ACCURACY: 54.9153
L1D TIMELY PREFETCHES:    1028604 LATE PREFETCHES: 240420 DROPPED PREFETCHES: 0
L1D PREFETCHES SAME FILL-ORIGIN LEVEL: 1873074 DIFFERENT FILL-ORIGIN LEVEL: 0
L1D AVERAGE MISS LATENCY: 4.4387e+06 cycles
L1D RQ	ACCESS:    8951937	FORWARD:          0	MERGED:    3579359	TO_CACHE:    5307423
L1D WQ	ACCESS:     459661	FORWARD:      74028	MERGED:      16474	TO_CACHE:     443187
L1D PQ	ACCESS:   10301469	FORWARD:          0	MERGED:    4067518	TO_CACHE:    6225078

L1D UNIQUE REGIONS ACCESSED: 0
L1D REGIONS CONFLICTS: 0
L1D Cross Page Prefetch Requests: 0
L1D Same Page Prefetch Requests: 10301469
L1D ROI Sum of L1D PQ occupancy: 110061471
L1D PREFETCHES PUSHED FROM L2C: 0
L1I TOTAL     ACCESS:    4091556  HIT:    4091556  MISS:          0  HIT %:        100  MISS %:          0   MPKI: 0
L1I LOAD      ACCESS:    4091556  HIT:    4091556  MISS:          0  HIT %:        100  MISS %:          0   MPKI: 0
L1I PREFETCH  REQUESTED:          0  ISSUED:          0  USEFUL:          0  USELESS:          0
L1I USEFUL LOAD PREFETCHES:          0 PREFETCH ISSUED TO LOWER LEVEL:          0  ACCURACY: -nan
L1I TIMELY PREFETCHES:          0 LATE PREFETCHES: 0 DROPPED PREFETCHES: 0
L1I PREFETCHES SAME FILL-ORIGIN LEVEL: 0 DIFFERENT FILL-ORIGIN LEVEL: 0
L1I AVERAGE MISS LATENCY: -nan cycles
L1I RQ	ACCESS:    5491744	FORWARD:          0	MERGED:    1400189	TO_CACHE:    4091555

BTB TOTAL     ACCESS:    7381233  HIT:    7359090  MISS:      22143  HIT %:       99.7  MISS %:   0.299991   MPKI: 0.88572
BTB BRANCH_DIRECT_JUMP	ACCESS:     954613  HIT:     954578  MISS:         35
BTB BRANCH_INDIRECT	ACCESS:          0  HIT:          0  MISS:          0
BTB BRANCH_CONDITIONAL	ACCESS:    6254608  HIT:    6254529  MISS:         79
BTB BRANCH_DIRECT_CALL	ACCESS:      79755  HIT:      79739  MISS:         16
BTB BRANCH_INDIRECT_CALL	ACCESS:       6250  HIT:       6242  MISS:          8
BTB BRANCH_RETURN	ACCESS:      86007  HIT:      64002  MISS:      22005
BTB BRANCH_OTHER ACCESS:          0  HIT:          0  MISS:          0

L2C TOTAL     ACCESS:    4700003  HIT:     607962  MISS:    4092041  HIT %:    12.9354  MISS %:    87.0646   MPKI: 163.682
L2C LOAD      ACCESS:    2615865  HIT:     371583  MISS:    2244282  HIT %:     14.205  MISS %:     85.795   MPKI: 89.7713
L2C DATA LOAD MPKI: 89.7713
L2C INSTRUCTION LOAD MPKI: 0
L2C RFO       ACCESS:       7331  HIT:        528  MISS:       6803  HIT %:    7.20229  MISS %:    92.7977   MPKI: 0.27212
L2C PREFETCH  ACCESS:    1873072  HIT:      58626  MISS:    1814446  HIT %:    3.12994  MISS %:    96.8701   MPKI: 72.5778
AGUS PREFETCH L1 MISS: 0
L2C DATA PREFETCH MPKI: 72.5778
L2C INSTRUCTION PREFETCH MPKI: 0
L2C WRITEBACK ACCESS:      80263  HIT:      80263  MISS:          0  HIT %:        100  MISS %:          0   MPKI: 0
L2C LOAD TRANSLATION ACCESS:      38255  HIT:      26550  MISS:      11705  HIT %:    69.4027  MISS %:    30.5973   MPKI: 0.4682
L2C PREFETCH TRANSLATION ACCESS:      85217  HIT:      70412  MISS:      14805  HIT %:    82.6267  MISS %:    17.3733   MPKI: 0.5922
L2C PREFETCH  REQUESTED:          0  ISSUED:          0  USEFUL:      27973  USELESS:    1798015
L2C USEFUL LOAD PREFETCHES:      27973 PREFETCH ISSUED TO LOWER LEVEL:    1814446  ACCURACY: 1.54168
L2C TIMELY PREFETCHES:      27973 LATE PREFETCHES: 0 DROPPED PREFETCHES: 0
L2C PREFETCHES SAME FILL-ORIGIN LEVEL: 0 DIFFERENT FILL-ORIGIN LEVEL: 0
L2C AVERAGE MISS LATENCY: 129.293 cycles
L2C RQ	ACCESS:    2746675	FORWARD:          0	MERGED:          0	TO_CACHE:    2746668
L2C WQ	ACCESS:      80263	FORWARD:          9	MERGED:          0	TO_CACHE:      80263
L2C PQ	ACCESS:    1873074	FORWARD:          0	MERGED:          0	TO_CACHE:    1873072

L2C Instructions Evicting Data 0
L2C Translations Evicting Data 26388
L2C Data Evicting Data 4039130
L2C Instructions Evicting Instructions 0
L2C Translations Evicting Instructions 0
L2C Data Evicting Instructions 0
L2C Instructions Evicting Translations 0
L2C Translations Evicting Translations 122
L2C Data Evicting Translations 26401
L2C Dense regions hint from L2: 0
PSCL5 TOTAL     ACCESS:     123056  HIT:     123056  MISS:          0  HIT %:        100  MISS %:          0   MPKI: 0
PSCL5 LOAD TRANSLATION ACCESS:      38082  HIT:      38082  MISS:          0  HIT %:        100  MISS %:          0   MPKI: 0
PSCL5 PREFETCH TRANSLATION ACCESS:      84974  HIT:      84974  MISS:          0  HIT %:        100  MISS %:          0   MPKI: 0
PSCL5 PREFETCH  REQUESTED:          0  ISSUED:          0  USEFUL:          0  USELESS:          0
PSCL5 USEFUL LOAD PREFETCHES:          0 PREFETCH ISSUED TO LOWER LEVEL:          0  ACCURACY: -nan
PSCL5 TIMELY PREFETCHES:          0 LATE PREFETCHES: 0 DROPPED PREFETCHES: 0
PSCL5 PREFETCHES SAME FILL-ORIGIN LEVEL: 0 DIFFERENT FILL-ORIGIN LEVEL: 0

PSCL4 TOTAL     ACCESS:     123056  HIT:     123056  MISS:          0  HIT %:        100  MISS %:          0   MPKI: 0
PSCL4 LOAD TRANSLATION ACCESS:      38082  HIT:      38082  MISS:          0  HIT %:        100  MISS %:          0   MPKI: 0
PSCL4 PREFETCH TRANSLATION ACCESS:      84974  HIT:      84974  MISS:          0  HIT %:        100  MISS %:          0   MPKI: 0
PSCL4 PREFETCH  REQUESTED:          0  ISSUED:          0  USEFUL:          0  USELESS:          0
PSCL4 USEFUL LOAD PREFETCHES:          0 PREFETCH ISSUED TO LOWER LEVEL:          0  ACCURACY: -nan
PSCL4 TIMELY PREFETCHES:          0 LATE PREFETCHES: 0 DROPPED PREFETCHES: 0
PSCL4 PREFETCHES SAME FILL-ORIGIN LEVEL: 0 DIFFERENT FILL-ORIGIN LEVEL: 0

PSCL3 TOTAL     ACCESS:     123056  HIT:     123056  MISS:          0  HIT %:        100  MISS %:          0   MPKI: 0
PSCL3 LOAD TRANSLATION ACCESS:      38082  HIT:      38082  MISS:          0  HIT %:        100  MISS %:          0   MPKI: 0
PSCL3 PREFETCH TRANSLATION ACCESS:      84974  HIT:      84974  MISS:          0  HIT %:        100  MISS %:          0   MPKI: 0
PSCL3 PREFETCH  REQUESTED:          0  ISSUED:          0  USEFUL:          0  USELESS:          0
PSCL3 USEFUL LOAD PREFETCHES:          0 PREFETCH ISSUED TO LOWER LEVEL:          0  ACCURACY: -nan
PSCL3 TIMELY PREFETCHES:          0 LATE PREFETCHES: 0 DROPPED PREFETCHES: 0
PSCL3 PREFETCHES SAME FILL-ORIGIN LEVEL: 0 DIFFERENT FILL-ORIGIN LEVEL: 0

PSCL2 TOTAL     ACCESS:     116453  HIT:     116067  MISS:        386  HIT %:    99.6685  MISS %:   0.331464   MPKI: 0.01544
PSCL2 LOAD TRANSLATION ACCESS:      38159  HIT:      37773  MISS:        386  HIT %:    98.9884  MISS %:    1.01156   MPKI: 0.01544
PSCL2 PREFETCH TRANSLATION ACCESS:      78294  HIT:      78294  MISS:          0  HIT %:        100  MISS %:          0   MPKI: 0
PSCL2 PREFETCH  REQUESTED:          0  ISSUED:          0  USEFUL:          0  USELESS:          0
PSCL2 USEFUL LOAD PREFETCHES:          0 PREFETCH ISSUED TO LOWER LEVEL:          0  ACCURACY: -nan
PSCL2 TIMELY PREFETCHES:          0 LATE PREFETCHES: 0 DROPPED PREFETCHES: 0
PSCL2 PREFETCHES SAME FILL-ORIGIN LEVEL: 0 DIFFERENT FILL-ORIGIN LEVEL: 0

LLC TOTAL     ACCESS:    4168650  HIT:    1788349  MISS:    2380301  HIT %:       42.9  MISS %:       57.1   MPKI: 95.212
LLC LOAD      ACCESS:    2244282  HIT:    1490490  MISS:     753792  HIT %:    66.4128  MISS %:    33.5872   MPKI: 30.1517
LLC RFO       ACCESS:       6803  HIT:       5607  MISS:       1196  HIT %:    82.4195  MISS %:    17.5805   MPKI: 0.04784
LLC PREFETCH  ACCESS:    1814446  HIT:     198281  MISS:    1616165  HIT %:    10.9279  MISS %:    89.0721   MPKI: 64.6466
AGUS PREFETCH L1 MISS: 0
LLC WRITEBACK ACCESS:      76609  HIT:      76521  MISS:         88  HIT %:    99.8851  MISS %:   0.114869   MPKI: 0.00352
LLC LOAD TRANSLATION ACCESS:      11705  HIT:       8372  MISS:       3333  HIT %:     71.525  MISS %:     28.475   MPKI: 0.13332
LLC PREFETCH TRANSLATION ACCESS:      14805  HIT:       9078  MISS:       5727  HIT %:    61.3171  MISS %:    38.6829   MPKI: 0.22908
LLC PREFETCH  REQUESTED:          0  ISSUED:          0  USEFUL:      26751  USELESS:    1577441
LLC USEFUL LOAD PREFETCHES:      26751 PREFETCH ISSUED TO LOWER LEVEL:    1616165  ACCURACY: 1.65521
LLC TIMELY PREFETCHES:      26751 LATE PREFETCHES: 0 DROPPED PREFETCHES: 0
LLC PREFETCHES SAME FILL-ORIGIN LEVEL: 0 DIFFERENT FILL-ORIGIN LEVEL: 0
LLC AVERAGE MISS LATENCY: 170.051 cycles
LLC RQ	ACCESS:    2277595	FORWARD:          0	MERGED:          0	TO_CACHE:    2277595
LLC WQ	ACCESS:      76609	FORWARD:          0	MERGED:          0	TO_CACHE:      76609
LLC PQ	ACCESS:    1814446	FORWARD:          0	MERGED:          0	TO_CACHE:    1814446

LLC Dense regions hint to LLC: 0

RAW hits: 62390
Loads Generated: 9014327
Loads sent to L1D: 8951937
Stores Generated: 459660
Stores sent to L1D: 459661
Major fault: 0 Minor fault: 44120
Allocated PAGES: 44120
CPU 0 L1D optimized prefetcher final stats
Degree: 5
CPU 0 STLB arbitrary stride prefetcher final stats
Degree: 8

DRAM Statistics
 CHANNEL 0
 RQ ROW_BUFFER_HIT:     829125  ROW_BUFFER_MISS:    1551003
 DBUS_CONGESTED:        226
 WQ ROW_BUFFER_HIT:      10143  ROW_BUFFER_MISS:      30869  FULL:          0

 AVG_CONGESTED_CYCLE: 4
 All warmup complete: 2
Channel 0 Bank busy for read cycles: 0
Channel 0 Bank busy for write cycles: 0
Channel 0
Rank 0
0banks busy for read cycles: 47374787
0banks busy for write cycles: 14160
1banks busy for read cycles: 33457984
1banks busy for write cycles: 2660696
2banks busy for read cycles: 17784597
2banks busy for write cycles: 611563
3banks busy for read cycles: 11482811
3banks busy for write cycles: 271940
4banks busy for read cycles: 9546671
4banks busy for write cycles: 162548
5banks busy for read cycles: 8715189
5banks busy for write cycles: 134037
6banks busy for read cycles: 7168505
6banks busy for write cycles: 116779
7banks busy for read cycles: 4260102
7banks busy for write cycles: 135929
8banks busy for read cycles: 2010089
8banks busy for write cycles: 256524

CPU 0 Branch Prediction Accuracy: 96.3142% MPKI: 11.2642 Average ROB Occupancy at Mispredict: 45.4081
Branch types
NOT_BRANCH: 17359361 69.4374%
BRANCH_DIRECT_JUMP: 954613 3.81845%
BRANCH_INDIRECT: 0 0%
BRANCH_CONDITIONAL: 6513665 26.0547%
BRANCH_DIRECT_CALL: 79755 0.31902%
BRANCH_INDIRECT_CALL: 6250 0.025%
BRANCH_RETURN: 86007 0.344028%
BRANCH_OTHER: 0 0%

DRAM PAGES: 1048576
Allocated PAGES: 44120
