
*** ChampSim Multicore Out-of-Order Simulator ***

Warmup Instructions: 25000000
Simulation Instructions: 25000000
Number of CPUs: 1
LLC sets: 2048
LLC ways: 16
Off-chip DRAM Size: 4096 MB Channels: 1 Width: 64-bit Data Rate: 6400 MT/s
CPU 0 runs ../traces/trace1.champsimtrace.xz
.xz
CPU 0 Bimodal branch predictor
BTB has LRU replacement policy
ITLB has LRU replacement policy
DTLB has LRU replacement policy
STLB has LRU replacement policy
L1I has LRU replacement policy
CPU 0 L1D IP-based stride prefetcher
L1D has LRU replacement policy
L2C has LRU replacement policy
LLC has LRU replacement policy
Heartbeat CPU 0 instructions: 10000003 cycles: 2849048 heartbeat IPC: 3.50995 cumulative IPC: 3.50995 (Simulation time: 0 hr 0 min 20 sec) 
Heartbeat CPU 0 instructions: 20000003 cycles: 5687474 heartbeat IPC: 3.52308 cumulative IPC: 3.5165 (Simulation time: 0 hr 0 min 34 sec) 

Warmup complete CPU 0 instructions: 25000004 cycles: 7112871 (Simulation time: 0 hr 0 min 41 sec) 

Heartbeat CPU 0 instructions: 30000002 cycles: 24306927 heartbeat IPC: 0.537073 cumulative IPC: 0.290798 (Simulation time: 0 hr 0 min 58 sec) 
Heartbeat CPU 0 instructions: 40000001 cycles: 61045438 heartbeat IPC: 0.272194 cumulative IPC: 0.278125 (Simulation time: 0 hr 1 min 33 sec) 
Heartbeat CPU 0 instructions: 50000003 cycles: 96828214 heartbeat IPC: 0.279464 cumulative IPC: 0.278659 (Simulation time: 0 hr 2 min 7 sec) 
Finished CPU 0 instructions: 25000003 cycles: 89715344 cumulative IPC: 0.278659 (Simulation time: 0 hr 2 min 7 sec) 

ChampSim completed all CPUs

Region of Interest Statistics

CPU 0 cumulative IPC: 0.278659 instructions: 25000003 cycles: 89715344
ITLB TOTAL     ACCESS:    4446449  HIT:    4446449  MISS:          0  HIT %:        100  MISS %:          0   MPKI: 0
ITLB LOAD TRANSLATION ACCESS:    4446449  HIT:    4446449  MISS:          0  HIT %:        100  MISS %:          0   MPKI: 0
ITLB PREFETCH  REQUESTED:          0  ISSUED:          0  USEFUL:          0  USELESS:          0
ITLB USEFUL LOAD PREFETCHES:          0 PREFETCH ISSUED TO LOWER LEVEL:          0  ACCURACY: -nan
ITLB TIMELY PREFETCHES:          0 LATE PREFETCHES: 0 DROPPED PREFETCHES: 0
ITLB PREFETCHES SAME FILL-ORIGIN LEVEL: 0 DIFFERENT FILL-ORIGIN LEVEL: 0
ITLB AVERAGE MISS LATENCY: -nan cycles
ITLB RQ	ACCESS:    4799225	FORWARD:          0	MERGED:     352777	TO_CACHE:    4446448

DTLB TOTAL     ACCESS:    3721406  HIT:    3058497  MISS:     662909  HIT %:    82.1866  MISS %:    17.8134   MPKI: 26.5164
DTLB LOAD TRANSLATION ACCESS:    3721406  HIT:    3058497  MISS:     662909  HIT %:    82.1866  MISS %:    17.8134   MPKI: 26.5164
DTLB PREFETCH  REQUESTED:          0  ISSUED:          0  USEFUL:          0  USELESS:          0
DTLB USEFUL LOAD PREFETCHES:          0 PREFETCH ISSUED TO LOWER LEVEL:          0  ACCURACY: -nan
DTLB TIMELY PREFETCHES:          0 LATE PREFETCHES: 0 DROPPED PREFETCHES: 0
DTLB PREFETCHES SAME FILL-ORIGIN LEVEL: 0 DIFFERENT FILL-ORIGIN LEVEL: 0
DTLB AVERAGE MISS LATENCY: 56.9434 cycles
DTLB RQ	ACCESS:    4320725	FORWARD:          0	MERGED:     591497	TO_CACHE:    3729228

STLB TOTAL     ACCESS:    1893132  HIT:    1330914  MISS:     562218  HIT %:    70.3022  MISS %:    29.6978   MPKI: 22.4887
STLB LOAD TRANSLATION ACCESS:     662909  HIT:     100893  MISS:     562016  HIT %:    15.2197  MISS %:    84.7803   MPKI: 22.4806
STLB TRANSLATION FROM L1D PREFETCHER ACCESS:    1230223  HIT:    1230021  MISS:        202  HIT %:    99.9836  MISS %:  0.0164198   MPKI: 0.00808
STLB PREFETCH  REQUESTED:          0  ISSUED:          0  USEFUL:        202  USELESS:          0
STLB USEFUL LOAD PREFETCHES:        202 PREFETCH ISSUED TO LOWER LEVEL:          0  ACCURACY: inf
STLB TIMELY PREFETCHES:        202 LATE PREFETCHES: 0 DROPPED PREFETCHES: 0
STLB PREFETCHES SAME FILL-ORIGIN LEVEL: 0 DIFFERENT FILL-ORIGIN LEVEL: 0
STLB AVERAGE MISS LATENCY: 56.4318 cycles
STLB RQ	ACCESS:    2420281	FORWARD:          0	MERGED:     527147	TO_CACHE:    1893134

STLB Hit, L1D data hit: 0
STLB Hit, L2C data hit: 0
STLB Hit, LLC data hit: 0
STLB Hit, LLC data miss: 0
STLB STLB hints to L2: 0
L1D TOTAL     ACCESS:    6055296  HIT:    4773313  MISS:    1281983  HIT %:    78.8287  MISS %:    21.1713   MPKI: 51.2793
L1D LOAD      ACCESS:    3191310  HIT:    2059973  MISS:    1131337  HIT %:    64.5494  MISS %:    35.4506   MPKI: 45.2535
L1D RFO       ACCESS:    1108664  HIT:    1039300  MISS:      69364  HIT %:    93.7435  MISS %:    6.25654   MPKI: 2.77456
L1D PREFETCH  ACCESS:    1755322  HIT:    1674040  MISS:      81282  HIT %:    95.3694  MISS %:     4.6306   MPKI: 3.25128
AGUS PREFETCH L1 MISS: 0
L1D PREFETCH  REQUESTED:   10816050  ISSUED:   10816050  USEFUL:      17078  USELESS:      64192
L1D USEFUL LOAD PREFETCHES:      17078 PREFETCH ISSUED TO LOWER LEVEL:      81744  ACCURACY: 20.8921
L1D TIMELY PREFETCHES:      17078 LATE PREFETCHES: 462 DROPPED PREFETCHES: 0
L1D PREFETCHES SAME FILL-ORIGIN LEVEL: 81744 DIFFERENT FILL-ORIGIN LEVEL: 0
L1D AVERAGE MISS LATENCY: 19972.4 cycles
L1D RQ	ACCESS:    6161008	FORWARD:          0	MERGED:    2884952	TO_CACHE:    3212059
L1D WQ	ACCESS:    1108674	FORWARD:      63997	MERGED:          8	TO_CACHE:    1108666
L1D PQ	ACCESS:    9058680	FORWARD:          0	MERGED:    7301310	TO_CACHE:    1757370

L1D UNIQUE REGIONS ACCESSED: 0
L1D REGIONS CONFLICTS: 0
L1D Cross Page Prefetch Requests: 0
L1D Same Page Prefetch Requests: 21508805
L1D ROI Sum of L1D PQ occupancy: 21727478
L1D PREFETCHES PUSHED FROM L2C: 0
L1I TOTAL     ACCESS:    4799225  HIT:    4799225  MISS:          0  HIT %:        100  MISS %:          0   MPKI: 0
L1I LOAD      ACCESS:    4799225  HIT:    4799225  MISS:          0  HIT %:        100  MISS %:          0   MPKI: 0
L1I PREFETCH  REQUESTED:          0  ISSUED:          0  USEFUL:          0  USELESS:          0
L1I USEFUL LOAD PREFETCHES:          0 PREFETCH ISSUED TO LOWER LEVEL:          0  ACCURACY: -nan
L1I TIMELY PREFETCHES:          0 LATE PREFETCHES: 0 DROPPED PREFETCHES: 0
L1I PREFETCHES SAME FILL-ORIGIN LEVEL: 0 DIFFERENT FILL-ORIGIN LEVEL: 0
L1I AVERAGE MISS LATENCY: -nan cycles
L1I RQ	ACCESS:    7125020	FORWARD:          0	MERGED:    2325795	TO_CACHE:    4799225

BTB TOTAL     ACCESS:    3283963  HIT:    3283955  MISS:          8  HIT %:    99.9998  MISS %: 0.000243608   MPKI: 0.00032
BTB BRANCH_DIRECT_JUMP	ACCESS:     568310  HIT:     568308  MISS:          2
BTB BRANCH_INDIRECT	ACCESS:          0  HIT:          0  MISS:          0
BTB BRANCH_CONDITIONAL	ACCESS:    1606985  HIT:    1606981  MISS:          4
BTB BRANCH_DIRECT_CALL	ACCESS:     554334  HIT:     554333  MISS:          1
BTB BRANCH_INDIRECT_CALL	ACCESS:          0  HIT:          0  MISS:          0
BTB BRANCH_RETURN	ACCESS:     554334  HIT:     554333  MISS:          1
BTB BRANCH_OTHER ACCESS:          0  HIT:          0  MISS:          0

L2C TOTAL     ACCESS:    2475593  HIT:    1427852  MISS:    1047741  HIT %:    57.6772  MISS %:    42.3228   MPKI: 41.9096
L2C LOAD      ACCESS:    1130875  HIT:     412475  MISS:     718400  HIT %:     36.474  MISS %:     63.526   MPKI: 28.736
L2C DATA LOAD MPKI: 28.736
L2C INSTRUCTION LOAD MPKI: 0
L2C RFO       ACCESS:      69364  HIT:      40768  MISS:      28596  HIT %:     58.774  MISS %:     41.226   MPKI: 1.14384
L2C PREFETCH  ACCESS:      81744  HIT:      64822  MISS:      16922  HIT %:    79.2988  MISS %:    20.7012   MPKI: 0.67688
AGUS PREFETCH L1 MISS: 0
L2C DATA PREFETCH MPKI: 0.67688
L2C INSTRUCTION PREFETCH MPKI: 0
L2C WRITEBACK ACCESS:     554355  HIT:     554355  MISS:          0  HIT %:        100  MISS %:          0   MPKI: 0
L2C LOAD TRANSLATION ACCESS:     638851  HIT:     355256  MISS:     283595  HIT %:    55.6086  MISS %:    44.3914   MPKI: 11.3438
L2C TRANSLATION FROM L1D PREFETCHER ACCESS:        404  HIT:        176  MISS:        228  HIT %:    43.5644  MISS %:    56.4356   MPKI: 0.00912
L2C PREFETCH  REQUESTED:          0  ISSUED:          0  USEFUL:        333  USELESS:      16568
L2C USEFUL LOAD PREFETCHES:        333 PREFETCH ISSUED TO LOWER LEVEL:      16922  ACCURACY: 1.96785
L2C TIMELY PREFETCHES:        333 LATE PREFETCHES: 0 DROPPED PREFETCHES: 0
L2C PREFETCHES SAME FILL-ORIGIN LEVEL: 0 DIFFERENT FILL-ORIGIN LEVEL: 0
L2C AVERAGE MISS LATENCY: 136.392 cycles
L2C RQ	ACCESS:    1839495	FORWARD:          0	MERGED:          0	TO_CACHE:    1839495
L2C WQ	ACCESS:     554355	FORWARD:          0	MERGED:          0	TO_CACHE:     554355
L2C PQ	ACCESS:      81744	FORWARD:          0	MERGED:          0	TO_CACHE:      81744

L2C Instructions Evicting Data 0
L2C Translations Evicting Data 161833
L2C Data Evicting Data 601954
L2C Instructions Evicting Instructions 0
L2C Translations Evicting Instructions 0
L2C Data Evicting Instructions 0
L2C Instructions Evicting Translations 0
L2C Translations Evicting Translations 121990
L2C Data Evicting Translations 161964
L2C Dense regions hint from L2: 0
PSCL5 TOTAL     ACCESS:     562219  HIT:     562219  MISS:          0  HIT %:        100  MISS %:          0   MPKI: 0
PSCL5 LOAD TRANSLATION ACCESS:     562017  HIT:     562017  MISS:          0  HIT %:        100  MISS %:          0   MPKI: 0
PSCL5 TRANSLATION FROM L1D PREFETCHER ACCESS:        202  HIT:        202  MISS:          0  HIT %:        100  MISS %:          0   MPKI: 0
PSCL5 PREFETCH  REQUESTED:          0  ISSUED:          0  USEFUL:          0  USELESS:          0
PSCL5 USEFUL LOAD PREFETCHES:          0 PREFETCH ISSUED TO LOWER LEVEL:          0  ACCURACY: -nan
PSCL5 TIMELY PREFETCHES:          0 LATE PREFETCHES: 0 DROPPED PREFETCHES: 0
PSCL5 PREFETCHES SAME FILL-ORIGIN LEVEL: 0 DIFFERENT FILL-ORIGIN LEVEL: 0

PSCL4 TOTAL     ACCESS:     562219  HIT:     562219  MISS:          0  HIT %:        100  MISS %:          0   MPKI: 0
PSCL4 LOAD TRANSLATION ACCESS:     562017  HIT:     562017  MISS:          0  HIT %:        100  MISS %:          0   MPKI: 0
PSCL4 TRANSLATION FROM L1D PREFETCHER ACCESS:        202  HIT:        202  MISS:          0  HIT %:        100  MISS %:          0   MPKI: 0
PSCL4 PREFETCH  REQUESTED:          0  ISSUED:          0  USEFUL:          0  USELESS:          0
PSCL4 USEFUL LOAD PREFETCHES:          0 PREFETCH ISSUED TO LOWER LEVEL:          0  ACCURACY: -nan
PSCL4 TIMELY PREFETCHES:          0 LATE PREFETCHES: 0 DROPPED PREFETCHES: 0
PSCL4 PREFETCHES SAME FILL-ORIGIN LEVEL: 0 DIFFERENT FILL-ORIGIN LEVEL: 0

PSCL3 TOTAL     ACCESS:     562219  HIT:     562219  MISS:          0  HIT %:        100  MISS %:          0   MPKI: 0
PSCL3 LOAD TRANSLATION ACCESS:     562017  HIT:     562017  MISS:          0  HIT %:        100  MISS %:          0   MPKI: 0
PSCL3 TRANSLATION FROM L1D PREFETCHER ACCESS:        202  HIT:        202  MISS:          0  HIT %:        100  MISS %:          0   MPKI: 0
PSCL3 PREFETCH  REQUESTED:          0  ISSUED:          0  USEFUL:          0  USELESS:          0
PSCL3 USEFUL LOAD PREFETCHES:          0 PREFETCH ISSUED TO LOWER LEVEL:          0  ACCURACY: -nan
PSCL3 TIMELY PREFETCHES:          0 LATE PREFETCHES: 0 DROPPED PREFETCHES: 0
PSCL3 PREFETCHES SAME FILL-ORIGIN LEVEL: 0 DIFFERENT FILL-ORIGIN LEVEL: 0

PSCL2 TOTAL     ACCESS:     562219  HIT:     485183  MISS:      77036  HIT %:    86.2979  MISS %:    13.7021   MPKI: 3.08144
PSCL2 LOAD TRANSLATION ACCESS:     562219  HIT:     485183  MISS:      77036  HIT %:    86.2979  MISS %:    13.7021   MPKI: 3.08144
PSCL2 PREFETCH  REQUESTED:          0  ISSUED:          0  USEFUL:          0  USELESS:          0
PSCL2 USEFUL LOAD PREFETCHES:          0 PREFETCH ISSUED TO LOWER LEVEL:          0  ACCURACY: -nan
PSCL2 TIMELY PREFETCHES:          0 LATE PREFETCHES: 0 DROPPED PREFETCHES: 0
PSCL2 PREFETCHES SAME FILL-ORIGIN LEVEL: 0 DIFFERENT FILL-ORIGIN LEVEL: 0

LLC TOTAL     ACCESS:    1602637  HIT:     949834  MISS:     652803  HIT %:    59.2669  MISS %:    40.7331   MPKI: 26.1121
LLC LOAD      ACCESS:     718400  HIT:      77983  MISS:     640417  HIT %:    10.8551  MISS %:    89.1449   MPKI: 25.6167
LLC RFO       ACCESS:      28596  HIT:      28592  MISS:          4  HIT %:     99.986  MISS %:   0.013988   MPKI: 0.00016
LLC PREFETCH  ACCESS:      16922  HIT:      11865  MISS:       5057  HIT %:    70.1158  MISS %:    29.8842   MPKI: 0.20228
AGUS PREFETCH L1 MISS: 0
LLC WRITEBACK ACCESS:     554896  HIT:     554896  MISS:          0  HIT %:        100  MISS %:          0   MPKI: 0
LLC LOAD TRANSLATION ACCESS:     283595  HIT:     276273  MISS:       7322  HIT %:    97.4181  MISS %:    2.58185   MPKI: 0.29288
LLC TRANSLATION FROM L1D PREFETCHER ACCESS:        228  HIT:        225  MISS:          3  HIT %:    98.6842  MISS %:    1.31579   MPKI: 0.00012
LLC PREFETCH  REQUESTED:          0  ISSUED:          0  USEFUL:        332  USELESS:       4367
LLC USEFUL LOAD PREFETCHES:        332 PREFETCH ISSUED TO LOWER LEVEL:       5057  ACCURACY: 6.56516
LLC TIMELY PREFETCHES:        332 LATE PREFETCHES: 0 DROPPED PREFETCHES: 0
LLC PREFETCHES SAME FILL-ORIGIN LEVEL: 0 DIFFERENT FILL-ORIGIN LEVEL: 0
LLC AVERAGE MISS LATENCY: 170.556 cycles
LLC RQ	ACCESS:    1030820	FORWARD:          0	MERGED:          0	TO_CACHE:    1030820
LLC WQ	ACCESS:     554896	FORWARD:          0	MERGED:          0	TO_CACHE:     554896
LLC PQ	ACCESS:      16922	FORWARD:          0	MERGED:          0	TO_CACHE:      16922

LLC Dense regions hint to LLC: 0

RAW hits: 489525
Loads Generated: 6650536
Loads sent to L1D: 6161008
Stores Generated: 1108672
Stores sent to L1D: 1108674
Major fault: 0 Minor fault: 23116
Allocated PAGES: 23116
CPU 0 L1D IP-based stride prefetcher final stats
Degree: 5

DRAM Statistics
 CHANNEL 0
 RQ ROW_BUFFER_HIT:       1880  ROW_BUFFER_MISS:     650923
 DBUS_CONGESTED:          4
 WQ ROW_BUFFER_HIT:     193628  ROW_BUFFER_MISS:     361094  FULL:          0

 AVG_CONGESTED_CYCLE: 4
 All warmup complete: 2
Channel 0 Bank busy for read cycles: 0
Channel 0 Bank busy for write cycles: 0
Channel 0
Rank 0
0banks busy for read cycles: 3089405
0banks busy for write cycles: 68665
1banks busy for read cycles: 21617004
1banks busy for write cycles: 5284117
2banks busy for read cycles: 14630154
2banks busy for write cycles: 7276288
3banks busy for read cycles: 11000415
3banks busy for write cycles: 10198758
4banks busy for read cycles: 3384409
4banks busy for write cycles: 7994208
5banks busy for read cycles: 39991
5banks busy for write cycles: 2884138
6banks busy for read cycles: 12302
6banks busy for write cycles: 1164113
7banks busy for read cycles: 4799
7banks busy for write cycles: 575491
8banks busy for read cycles: 1425
8banks busy for write cycles: 489663

CPU 0 Branch Prediction Accuracy: 99.9685% MPKI: 0.04912 Average ROB Occupancy at Mispredict: 156.325
Branch types
NOT_BRANCH: 21105636 84.4225%
BRANCH_DIRECT_JUMP: 568310 2.27324%
BRANCH_INDIRECT: 0 0%
BRANCH_CONDITIONAL: 2217336 8.86934%
BRANCH_DIRECT_CALL: 554334 2.21734%
BRANCH_INDIRECT_CALL: 0 0%
BRANCH_RETURN: 554334 2.21734%
BRANCH_OTHER: 0 0%

DRAM PAGES: 1048576
Allocated PAGES: 23116
