
*** ChampSim Multicore Out-of-Order Simulator ***

Warmup Instructions: 25000000
Simulation Instructions: 25000000
Number of CPUs: 1
LLC sets: 2048
LLC ways: 16
Off-chip DRAM Size: 4096 MB Channels: 1 Width: 64-bit Data Rate: 6400 MT/s
CPU 0 runs ../traces/trace1.champsimtrace.xz
.xz
CPU 0 Bimodal branch predictor
BTB has LRU replacement policy
ITLB has LRU replacement policy
DTLB has LRU replacement policy
STLB has LRU replacement policy
L1I has LRU replacement policy
CPU 0 L1D Next-line prefetcher
L1D has LRU replacement policy
L2C has LRU replacement policy
LLC has LRU replacement policy
Heartbeat CPU 0 instructions: 10000003 cycles: 2887014 heartbeat IPC: 3.46379 cumulative IPC: 3.46379 (Simulation time: 0 hr 0 min 22 sec) 
Heartbeat CPU 0 instructions: 20000003 cycles: 5763875 heartbeat IPC: 3.47601 cumulative IPC: 3.46989 (Simulation time: 0 hr 0 min 39 sec) 

Warmup complete CPU 0 instructions: 25000004 cycles: 7207759 (Simulation time: 0 hr 0 min 48 sec) 

Heartbeat CPU 0 instructions: 30000002 cycles: 18660464 heartbeat IPC: 0.775399 cumulative IPC: 0.436578 (Simulation time: 0 hr 1 min 5 sec) 
Heartbeat CPU 0 instructions: 40000002 cycles: 45487242 heartbeat IPC: 0.372762 cumulative IPC: 0.391855 (Simulation time: 0 hr 1 min 42 sec) 
Heartbeat CPU 0 instructions: 50000000 cycles: 69214855 heartbeat IPC: 0.42145 cumulative IPC: 0.40318 (Simulation time: 0 hr 2 min 18 sec) 
Finished CPU 0 instructions: 25000000 cycles: 62007097 cumulative IPC: 0.40318 (Simulation time: 0 hr 2 min 18 sec) 

ChampSim completed all CPUs

Region of Interest Statistics

CPU 0 cumulative IPC: 0.40318 instructions: 25000000 cycles: 62007097
ITLB TOTAL     ACCESS:    4485322  HIT:    4485322  MISS:          0  HIT %:        100  MISS %:          0   MPKI: 0
ITLB LOAD TRANSLATION ACCESS:    4485322  HIT:    4485322  MISS:          0  HIT %:        100  MISS %:          0   MPKI: 0
ITLB PREFETCH  REQUESTED:          0  ISSUED:          0  USEFUL:          0  USELESS:          0
ITLB USEFUL LOAD PREFETCHES:          0 PREFETCH ISSUED TO LOWER LEVEL:          0  ACCURACY: -nan
ITLB TIMELY PREFETCHES:          0 LATE PREFETCHES: 0 DROPPED PREFETCHES: 0
ITLB PREFETCHES SAME FILL-ORIGIN LEVEL: 0 DIFFERENT FILL-ORIGIN LEVEL: 0
ITLB AVERAGE MISS LATENCY: -nan cycles
ITLB RQ	ACCESS:    4827775	FORWARD:          0	MERGED:     342454	TO_CACHE:    4485321

DTLB TOTAL     ACCESS:    3805782  HIT:    3143118  MISS:     662664  HIT %:     82.588  MISS %:     17.412   MPKI: 26.5066
DTLB LOAD TRANSLATION ACCESS:    3805782  HIT:    3143118  MISS:     662664  HIT %:     82.588  MISS %:     17.412   MPKI: 26.5066
DTLB PREFETCH  REQUESTED:          0  ISSUED:          0  USEFUL:          0  USELESS:          0
DTLB USEFUL LOAD PREFETCHES:          0 PREFETCH ISSUED TO LOWER LEVEL:          0  ACCURACY: -nan
DTLB TIMELY PREFETCHES:          0 LATE PREFETCHES: 0 DROPPED PREFETCHES: 0
DTLB PREFETCHES SAME FILL-ORIGIN LEVEL: 0 DIFFERENT FILL-ORIGIN LEVEL: 0
DTLB AVERAGE MISS LATENCY: 78.5722 cycles
DTLB RQ	ACCESS:    4399257	FORWARD:          0	MERGED:     589873	TO_CACHE:    3809384

STLB TOTAL     ACCESS:    3234315  HIT:    2672149  MISS:     562166  HIT %:    82.6187  MISS %:    17.3813   MPKI: 22.4866
STLB LOAD TRANSLATION ACCESS:     662664  HIT:     100699  MISS:     561965  HIT %:    15.1961  MISS %:    84.8039   MPKI: 22.4786
STLB TRANSLATION FROM L1D PREFETCHER ACCESS:    2571651  HIT:    2571450  MISS:        201  HIT %:    99.9922  MISS %: 0.00781599   MPKI: 0.00804
STLB PREFETCH  REQUESTED:          0  ISSUED:          0  USEFUL:        201  USELESS:          0
STLB USEFUL LOAD PREFETCHES:        201 PREFETCH ISSUED TO LOWER LEVEL:          0  ACCURACY: inf
STLB TIMELY PREFETCHES:        201 LATE PREFETCHES: 0 DROPPED PREFETCHES: 0
STLB PREFETCHES SAME FILL-ORIGIN LEVEL: 0 DIFFERENT FILL-ORIGIN LEVEL: 0
STLB AVERAGE MISS LATENCY: 81.92 cycles
STLB RQ	ACCESS:   12777623	FORWARD:          0	MERGED:    9543304	TO_CACHE:    3234319

STLB Hit, L1D data hit: 0
STLB Hit, L2C data hit: 0
STLB Hit, LLC data hit: 0
STLB Hit, LLC data miss: 0
STLB STLB hints to L2: 0
L1D TOTAL     ACCESS:   16002118  HIT:   10583935  MISS:    5418183  HIT %:    66.1408  MISS %:    33.8592   MPKI: 216.727
L1D LOAD      ACCESS:    3269349  HIT:    2041266  MISS:    1228083  HIT %:    62.4365  MISS %:    37.5635   MPKI: 49.1233
L1D RFO       ACCESS:    1108669  HIT:    1039309  MISS:      69360  HIT %:    93.7438  MISS %:    6.25615   MPKI: 2.7744
L1D PREFETCH  ACCESS:   11624100  HIT:    7503360  MISS:    4120740  HIT %:      64.55  MISS %:      35.45   MPKI: 164.83
AGUS PREFETCH L1 MISS: 0
L1D PREFETCH  REQUESTED:   28101788  ISSUED:   28024721  USEFUL:      18332  USELESS:    4102366
L1D USEFUL LOAD PREFETCHES:      18332 PREFETCH ISSUED TO LOWER LEVEL:    4124500  ACCURACY: 0.444466
L1D TIMELY PREFETCHES:      18332 LATE PREFETCHES: 3761 DROPPED PREFETCHES: 0
L1D PREFETCHES SAME FILL-ORIGIN LEVEL: 4124500 DIFFERENT FILL-ORIGIN LEVEL: 0
L1D AVERAGE MISS LATENCY: 33139.6 cycles
L1D RQ	ACCESS:    6149297	FORWARD:          0	MERGED:    2806417	TO_CACHE:    3290586
L1D WQ	ACCESS:    1108674	FORWARD:      52294	MERGED:          3	TO_CACHE:    1108671
L1D PQ	ACCESS:   15909766	FORWARD:          0	MERGED:    3794811	TO_CACHE:   12114955

L1D UNIQUE REGIONS ACCESSED: 0
L1D REGIONS CONFLICTS: 0
L1D Cross Page Prefetch Requests: 0
L1D Same Page Prefetch Requests: 30687146
L1D ROI Sum of L1D PQ occupancy: 168384096
L1D PREFETCHES PUSHED FROM L2C: 0
L1I TOTAL     ACCESS:    4827775  HIT:    4827775  MISS:          0  HIT %:        100  MISS %:          0   MPKI: 0
L1I LOAD      ACCESS:    4827775  HIT:    4827775  MISS:          0  HIT %:        100  MISS %:          0   MPKI: 0
L1I PREFETCH  REQUESTED:          0  ISSUED:          0  USEFUL:          0  USELESS:          0
L1I USEFUL LOAD PREFETCHES:          0 PREFETCH ISSUED TO LOWER LEVEL:          0  ACCURACY: -nan
L1I TIMELY PREFETCHES:          0 LATE PREFETCHES: 0 DROPPED PREFETCHES: 0
L1I PREFETCHES SAME FILL-ORIGIN LEVEL: 0 DIFFERENT FILL-ORIGIN LEVEL: 0
L1I AVERAGE MISS LATENCY: -nan cycles
L1I RQ	ACCESS:    7352074	FORWARD:          0	MERGED:    2524299	TO_CACHE:    4827775

BTB TOTAL     ACCESS:    3283969  HIT:    3283961  MISS:          8  HIT %:    99.9998  MISS %: 0.000243608   MPKI: 0.00032
BTB BRANCH_DIRECT_JUMP	ACCESS:     568311  HIT:     568309  MISS:          2
BTB BRANCH_INDIRECT	ACCESS:          0  HIT:          0  MISS:          0
BTB BRANCH_CONDITIONAL	ACCESS:    1606988  HIT:    1606984  MISS:          4
BTB BRANCH_DIRECT_CALL	ACCESS:     554335  HIT:     554334  MISS:          1
BTB BRANCH_INDIRECT_CALL	ACCESS:          0  HIT:          0  MISS:          0
BTB BRANCH_RETURN	ACCESS:     554335  HIT:     554334  MISS:          1
BTB BRANCH_OTHER ACCESS:          0  HIT:          0  MISS:          0

L2C TOTAL     ACCESS:    6611723  HIT:    1959781  MISS:    4651942  HIT %:     29.641  MISS %:     70.359   MPKI: 186.078
L2C LOAD      ACCESS:    1224322  HIT:     300940  MISS:     923382  HIT %:    24.5801  MISS %:    75.4199   MPKI: 36.9353
L2C DATA LOAD MPKI: 36.9353
L2C INSTRUCTION LOAD MPKI: 0
L2C RFO       ACCESS:      69360  HIT:        745  MISS:      68615  HIT %:    1.07411  MISS %:    98.9259   MPKI: 2.7446
L2C PREFETCH  ACCESS:    4124499  HIT:    1025402  MISS:    3099097  HIT %:    24.8612  MISS %:    75.1388   MPKI: 123.964
AGUS PREFETCH L1 MISS: 0
L2C DATA PREFETCH MPKI: 123.964
L2C INSTRUCTION PREFETCH MPKI: 0
L2C WRITEBACK ACCESS:     554351  HIT:     554347  MISS:          4  HIT %:    99.9993  MISS %: 0.000721564   MPKI: 0.00016
L2C LOAD TRANSLATION ACCESS:     638789  HIT:      78347  MISS:     560442  HIT %:    12.2649  MISS %:    87.7351   MPKI: 22.4177
L2C TRANSLATION FROM L1D PREFETCHER ACCESS:        402  HIT:          0  MISS:        402  HIT %:          0  MISS %:        100   MPKI: 0.01608
L2C PREFETCH  REQUESTED:          0  ISSUED:          0  USEFUL:       3790  USELESS:    3095479
L2C USEFUL LOAD PREFETCHES:       3790 PREFETCH ISSUED TO LOWER LEVEL:    3099100  ACCURACY: 0.122294
L2C TIMELY PREFETCHES:       3790 LATE PREFETCHES: 0 DROPPED PREFETCHES: 0
L2C PREFETCHES SAME FILL-ORIGIN LEVEL: 0 DIFFERENT FILL-ORIGIN LEVEL: 0
L2C AVERAGE MISS LATENCY: 63.9806 cycles
L2C RQ	ACCESS:    1932874	FORWARD:          0	MERGED:          0	TO_CACHE:    1932874
L2C WQ	ACCESS:     554351	FORWARD:          0	MERGED:          0	TO_CACHE:     554351
L2C PQ	ACCESS:    4124500	FORWARD:          0	MERGED:          0	TO_CACHE:    4124500

L2C Instructions Evicting Data 0
L2C Translations Evicting Data 476261
L2C Data Evicting Data 3614592
L2C Instructions Evicting Instructions 0
L2C Translations Evicting Instructions 0
L2C Data Evicting Instructions 0
L2C Instructions Evicting Translations 0
L2C Translations Evicting Translations 84583
L2C Data Evicting Translations 476502
L2C Dense regions hint from L2: 0
PSCL5 TOTAL     ACCESS:     562168  HIT:     562168  MISS:          0  HIT %:        100  MISS %:          0   MPKI: 0
PSCL5 LOAD TRANSLATION ACCESS:     561967  HIT:     561967  MISS:          0  HIT %:        100  MISS %:          0   MPKI: 0
PSCL5 TRANSLATION FROM L1D PREFETCHER ACCESS:        201  HIT:        201  MISS:          0  HIT %:        100  MISS %:          0   MPKI: 0
PSCL5 PREFETCH  REQUESTED:          0  ISSUED:          0  USEFUL:          0  USELESS:          0
PSCL5 USEFUL LOAD PREFETCHES:          0 PREFETCH ISSUED TO LOWER LEVEL:          0  ACCURACY: -nan
PSCL5 TIMELY PREFETCHES:          0 LATE PREFETCHES: 0 DROPPED PREFETCHES: 0
PSCL5 PREFETCHES SAME FILL-ORIGIN LEVEL: 0 DIFFERENT FILL-ORIGIN LEVEL: 0

PSCL4 TOTAL     ACCESS:     562168  HIT:     562168  MISS:          0  HIT %:        100  MISS %:          0   MPKI: 0
PSCL4 LOAD TRANSLATION ACCESS:     561967  HIT:     561967  MISS:          0  HIT %:        100  MISS %:          0   MPKI: 0
PSCL4 TRANSLATION FROM L1D PREFETCHER ACCESS:        201  HIT:        201  MISS:          0  HIT %:        100  MISS %:          0   MPKI: 0
PSCL4 PREFETCH  REQUESTED:          0  ISSUED:          0  USEFUL:          0  USELESS:          0
PSCL4 USEFUL LOAD PREFETCHES:          0 PREFETCH ISSUED TO LOWER LEVEL:          0  ACCURACY: -nan
PSCL4 TIMELY PREFETCHES:          0 LATE PREFETCHES: 0 DROPPED PREFETCHES: 0
PSCL4 PREFETCHES SAME FILL-ORIGIN LEVEL: 0 DIFFERENT FILL-ORIGIN LEVEL: 0

PSCL3 TOTAL     ACCESS:     562168  HIT:     562168  MISS:          0  HIT %:        100  MISS %:          0   MPKI: 0
PSCL3 LOAD TRANSLATION ACCESS:     561967  HIT:     561967  MISS:          0  HIT %:        100  MISS %:          0   MPKI: 0
PSCL3 TRANSLATION FROM L1D PREFETCHER ACCESS:        201  HIT:        201  MISS:          0  HIT %:        100  MISS %:          0   MPKI: 0
PSCL3 PREFETCH  REQUESTED:          0  ISSUED:          0  USEFUL:          0  USELESS:          0
PSCL3 USEFUL LOAD PREFETCHES:          0 PREFETCH ISSUED TO LOWER LEVEL:          0  ACCURACY: -nan
PSCL3 TIMELY PREFETCHES:          0 LATE PREFETCHES: 0 DROPPED PREFETCHES: 0
PSCL3 PREFETCHES SAME FILL-ORIGIN LEVEL: 0 DIFFERENT FILL-ORIGIN LEVEL: 0

PSCL2 TOTAL     ACCESS:     562167  HIT:     485143  MISS:      77024  HIT %:    86.2987  MISS %:    13.7013   MPKI: 3.08096
PSCL2 LOAD TRANSLATION ACCESS:     562167  HIT:     485143  MISS:      77024  HIT %:    86.2987  MISS %:    13.7013   MPKI: 3.08096
PSCL2 PREFETCH  REQUESTED:          0  ISSUED:          0  USEFUL:          0  USELESS:          0
PSCL2 USEFUL LOAD PREFETCHES:          0 PREFETCH ISSUED TO LOWER LEVEL:          0  ACCURACY: -nan
PSCL2 TIMELY PREFETCHES:          0 LATE PREFETCHES: 0 DROPPED PREFETCHES: 0
PSCL2 PREFETCHES SAME FILL-ORIGIN LEVEL: 0 DIFFERENT FILL-ORIGIN LEVEL: 0

LLC TOTAL     ACCESS:    5206516  HIT:    4465471  MISS:     741045  HIT %:     85.767  MISS %:     14.233   MPKI: 29.6418
LLC LOAD      ACCESS:     923382  HIT:     888813  MISS:      34569  HIT %:    96.2563  MISS %:    3.74374   MPKI: 1.38276
LLC RFO       ACCESS:      68615  HIT:      67854  MISS:        761  HIT %:    98.8909  MISS %:    1.10909   MPKI: 0.03044
LLC PREFETCH  ACCESS:    3099097  HIT:    2404275  MISS:     694822  HIT %:    77.5799  MISS %:    22.4201   MPKI: 27.7929
AGUS PREFETCH L1 MISS: 0
LLC WRITEBACK ACCESS:     554578  HIT:     554578  MISS:          0  HIT %:        100  MISS %:          0   MPKI: 0
LLC LOAD TRANSLATION ACCESS:     560442  HIT:     549558  MISS:      10884  HIT %:     98.058  MISS %:    1.94204   MPKI: 0.43536
LLC TRANSLATION FROM L1D PREFETCHER ACCESS:        402  HIT:        393  MISS:          9  HIT %:    97.7612  MISS %:    2.23881   MPKI: 0.00036
LLC PREFETCH  REQUESTED:          0  ISSUED:          0  USEFUL:     608015  USELESS:      85357
LLC USEFUL LOAD PREFETCHES:     608015 PREFETCH ISSUED TO LOWER LEVEL:     694825  ACCURACY: 87.5062
LLC TIMELY PREFETCHES:     608015 LATE PREFETCHES: 0 DROPPED PREFETCHES: 0
LLC PREFETCHES SAME FILL-ORIGIN LEVEL: 0 DIFFERENT FILL-ORIGIN LEVEL: 0
LLC AVERAGE MISS LATENCY: 209.446 cycles
LLC RQ	ACCESS:    1552841	FORWARD:          0	MERGED:          0	TO_CACHE:    1552841
LLC WQ	ACCESS:     554578	FORWARD:          0	MERGED:          0	TO_CACHE:     554578
LLC PQ	ACCESS:    3099100	FORWARD:          0	MERGED:          0	TO_CACHE:    3099100

LLC Dense regions hint to LLC: 0

RAW hits: 501237
Loads Generated: 6650536
Loads sent to L1D: 6149297
Stores Generated: 1108672
Stores sent to L1D: 1108674
Major fault: 0 Minor fault: 23115
Allocated PAGES: 23115
CPU 0 L1D nextline prefetcher final stats
Degree: 5

DRAM Statistics
 CHANNEL 0
 RQ ROW_BUFFER_HIT:       9238  ROW_BUFFER_MISS:     731807
 DBUS_CONGESTED:          4
 WQ ROW_BUFFER_HIT:     150566  ROW_BUFFER_MISS:     405862  FULL:          0

 AVG_CONGESTED_CYCLE: 6
 All warmup complete: 2
Channel 0 Bank busy for read cycles: 0
Channel 0 Bank busy for write cycles: 0
Channel 0
Rank 0
0banks busy for read cycles: 136460
0banks busy for write cycles: 5
1banks busy for read cycles: 11435992
1banks busy for write cycles: 135467
2banks busy for read cycles: 14896164
2banks busy for write cycles: 135736
3banks busy for read cycles: 10291383
3banks busy for write cycles: 136415
4banks busy for read cycles: 4347850
4banks busy for write cycles: 140364
5banks busy for read cycles: 1127658
5banks busy for write cycles: 146645
6banks busy for read cycles: 1638191
6banks busy for write cycles: 176843
7banks busy for read cycles: 673754
7banks busy for write cycles: 920084
8banks busy for read cycles: 194767
8banks busy for write cycles: 15473320

CPU 0 Branch Prediction Accuracy: 99.9685% MPKI: 0.04912 Average ROB Occupancy at Mispredict: 156.866
Branch types
NOT_BRANCH: 21105674 84.4227%
BRANCH_DIRECT_JUMP: 568311 2.27324%
BRANCH_INDIRECT: 0 0%
BRANCH_CONDITIONAL: 2217340 8.86936%
BRANCH_DIRECT_CALL: 554335 2.21734%
BRANCH_INDIRECT_CALL: 0 0%
BRANCH_RETURN: 554335 2.21734%
BRANCH_OTHER: 0 0%

DRAM PAGES: 1048576
Allocated PAGES: 23115
