
*** ChampSim Multicore Out-of-Order Simulator ***

Warmup Instructions: 25000000
Simulation Instructions: 25000000
Number of CPUs: 1
LLC sets: 2048
LLC ways: 16
Off-chip DRAM Size: 4096 MB Channels: 1 Width: 64-bit Data Rate: 6400 MT/s
CPU 0 runs ../traces/trace2.champsimtrace.xz
.xz
CPU 0 Bimodal branch predictor
BTB has LRU replacement policy
ITLB has LRU replacement policy
DTLB has LRU replacement policy
CPU 0 STLB arbitrary stride prefetcher
STLB has LRU replacement policy
L1I has LRU replacement policy
CPU 0 L1D Complex-Stride prefetcher
L1D has LRU replacement policy
L2C has LRU replacement policy
LLC has LRU replacement policy
Heartbeat CPU 0 instructions: 10000002 cycles: 3798217 heartbeat IPC: 2.63281 cumulative IPC: 2.63281 (Simulation time: 0 hr 0 min 20 sec) 
Heartbeat CPU 0 instructions: 20000001 cycles: 7598795 heartbeat IPC: 2.63118 cumulative IPC: 2.632 (Simulation time: 0 hr 0 min 35 sec) 

Warmup complete CPU 0 instructions: 25000001 cycles: 9498143 (Simulation time: 0 hr 0 min 42 sec) 

Heartbeat CPU 0 instructions: 30000001 cycles: 23105412 heartbeat IPC: 0.644886 cumulative IPC: 0.367451 (Simulation time: 0 hr 0 min 57 sec) 
Heartbeat CPU 0 instructions: 40000002 cycles: 49983455 heartbeat IPC: 0.372051 cumulative IPC: 0.370505 (Simulation time: 0 hr 1 min 26 sec) 
Heartbeat CPU 0 instructions: 50000000 cycles: 76395248 heartbeat IPC: 0.378619 cumulative IPC: 0.373708 (Simulation time: 0 hr 1 min 55 sec) 
Finished CPU 0 instructions: 25000000 cycles: 66897127 cumulative IPC: 0.373708 (Simulation time: 0 hr 1 min 55 sec) 

ChampSim completed all CPUs

Region of Interest Statistics

CPU 0 cumulative IPC: 0.373708 instructions: 25000000 cycles: 66897127
ITLB TOTAL     ACCESS:    4554222  HIT:    4554222  MISS:          0  HIT %:        100  MISS %:          0   MPKI: 0
ITLB LOAD TRANSLATION ACCESS:    4554222  HIT:    4554222  MISS:          0  HIT %:        100  MISS %:          0   MPKI: 0
ITLB PREFETCH  REQUESTED:          0  ISSUED:          0  USEFUL:          0  USELESS:          0
ITLB USEFUL LOAD PREFETCHES:          0 PREFETCH ISSUED TO LOWER LEVEL:          0  ACCURACY: -nan
ITLB TIMELY PREFETCHES:          0 LATE PREFETCHES: 0 DROPPED PREFETCHES: 0
ITLB PREFETCHES SAME FILL-ORIGIN LEVEL: 0 DIFFERENT FILL-ORIGIN LEVEL: 0
ITLB AVERAGE MISS LATENCY: -nan cycles
ITLB RQ	ACCESS:    4639635	FORWARD:          0	MERGED:      85413	TO_CACHE:    4554222

DTLB TOTAL     ACCESS:    3873355  HIT:    3839340  MISS:      34015  HIT %:    99.1218  MISS %:   0.878179   MPKI: 1.3606
DTLB LOAD TRANSLATION ACCESS:    3873355  HIT:    3839340  MISS:      34015  HIT %:    99.1218  MISS %:   0.878179   MPKI: 1.3606
DTLB PREFETCH  REQUESTED:          0  ISSUED:          0  USEFUL:          0  USELESS:          0
DTLB USEFUL LOAD PREFETCHES:          0 PREFETCH ISSUED TO LOWER LEVEL:          0  ACCURACY: -nan
DTLB TIMELY PREFETCHES:          0 LATE PREFETCHES: 0 DROPPED PREFETCHES: 0
DTLB PREFETCHES SAME FILL-ORIGIN LEVEL: 0 DIFFERENT FILL-ORIGIN LEVEL: 0
DTLB AVERAGE MISS LATENCY: 84.1042 cycles
DTLB RQ	ACCESS:    4557976	FORWARD:          0	MERGED:     684545	TO_CACHE:    3873431

STLB TOTAL     ACCESS:    3068905  HIT:    3036180  MISS:      32725  HIT %:    98.9337  MISS %:    1.06634   MPKI: 1.309
STLB LOAD TRANSLATION ACCESS:      34015  HIT:      12386  MISS:      21629  HIT %:    36.4133  MISS %:    63.5867   MPKI: 0.86516
STLB PREFETCH TRANSLATION ACCESS:      21237  HIT:      10149  MISS:      11088  HIT %:    47.7892  MISS %:    52.2108   MPKI: 0.44352
STLB TRANSLATION FROM L1D PREFETCHER ACCESS:    3013653  HIT:    3013645  MISS:          8  HIT %:    99.9997  MISS %: 0.000265459   MPKI: 0.00032
STLB PREFETCH  REQUESTED:      66232  ISSUED:      66232  USEFUL:      11032  USELESS:         38
STLB USEFUL LOAD PREFETCHES:      11032 PREFETCH ISSUED TO LOWER LEVEL:      54025  ACCURACY: 20.4202
STLB TIMELY PREFETCHES:      11032 LATE PREFETCHES: 0 DROPPED PREFETCHES: 42937
STLB PREFETCHES SAME FILL-ORIGIN LEVEL: 54025 DIFFERENT FILL-ORIGIN LEVEL: 0
STLB AVERAGE MISS LATENCY: 126.042 cycles
STLB RQ	ACCESS:   14550877	FORWARD:          0	MERGED:   11503208	TO_CACHE:    3047669
STLB PQ	ACCESS:      66232	FORWARD:          0	MERGED:       2058	TO_CACHE:      64174

STLB Hit, L1D data hit: 0
STLB Hit, L2C data hit: 0
STLB Hit, LLC data hit: 0
STLB Hit, LLC data miss: 0
STLB STLB hints to L2: 0
L1D TOTAL     ACCESS:   11321928  HIT:    9489947  MISS:    1831981  HIT %:    83.8192  MISS %:    16.1808   MPKI: 73.2792
L1D LOAD      ACCESS:    4205480  HIT:    3925015  MISS:     280465  HIT %:     93.331  MISS %:    6.66904   MPKI: 11.2186
L1D RFO       ACCESS:     333322  HIT:     333308  MISS:         14  HIT %:    99.9958  MISS %: 0.00420014   MPKI: 0.00056
L1D PREFETCH  ACCESS:    6783126  HIT:    5231624  MISS:    1551502  HIT %:     77.127  MISS %:     22.873   MPKI: 62.0601
AGUS PREFETCH L1 MISS: 0
L1D PREFETCH  REQUESTED:   34663987  ISSUED:   34634814  USEFUL:    1474243  USELESS:      77167
L1D USEFUL LOAD PREFETCHES:    1474243 PREFETCH ISSUED TO LOWER LEVEL:    1788577  ACCURACY: 82.4255
L1D TIMELY PREFETCHES:    1474243 LATE PREFETCHES: 237074 DROPPED PREFETCHES: 0
L1D PREFETCHES SAME FILL-ORIGIN LEVEL: 1788577 DIFFERENT FILL-ORIGIN LEVEL: 0
L1D AVERAGE MISS LATENCY: 5.61664e+06 cycles
L1D RQ	ACCESS:    8972959	FORWARD:          0	MERGED:    4746752	TO_CACHE:    4224650
L1D WQ	ACCESS:     370377	FORWARD:       1557	MERGED:      37051	TO_CACHE:     333326
L1D PQ	ACCESS:   20117952	FORWARD:          0	MERGED:    5601090	TO_CACHE:   14516862

L1D UNIQUE REGIONS ACCESSED: 0
L1D REGIONS CONFLICTS: 0
L1D Cross Page Prefetch Requests: 0
L1D Same Page Prefetch Requests: 20117952
L1D ROI Sum of L1D PQ occupancy: 203896017
L1D PREFETCHES PUSHED FROM L2C: 0
L1I TOTAL     ACCESS:    4639634  HIT:    4639634  MISS:          0  HIT %:        100  MISS %:          0   MPKI: 0
L1I LOAD      ACCESS:    4639634  HIT:    4639634  MISS:          0  HIT %:        100  MISS %:          0   MPKI: 0
L1I PREFETCH  REQUESTED:          0  ISSUED:          0  USEFUL:          0  USELESS:          0
L1I USEFUL LOAD PREFETCHES:          0 PREFETCH ISSUED TO LOWER LEVEL:          0  ACCURACY: -nan
L1I TIMELY PREFETCHES:          0 LATE PREFETCHES: 0 DROPPED PREFETCHES: 0
L1I PREFETCHES SAME FILL-ORIGIN LEVEL: 0 DIFFERENT FILL-ORIGIN LEVEL: 0
L1I AVERAGE MISS LATENCY: -nan cycles
L1I RQ	ACCESS:    6963566	FORWARD:          0	MERGED:    2323931	TO_CACHE:    4639635

BTB TOTAL     ACCESS:    5953193  HIT:    5953095  MISS:         98  HIT %:    99.9984  MISS %: 0.00164618   MPKI: 0.00392
BTB BRANCH_DIRECT_JUMP	ACCESS:      85874  HIT:      85848  MISS:         26
BTB BRANCH_INDIRECT	ACCESS:          0  HIT:          0  MISS:          0
BTB BRANCH_CONDITIONAL	ACCESS:    5783213  HIT:    5783164  MISS:         49
BTB BRANCH_DIRECT_CALL	ACCESS:      42053  HIT:      42043  MISS:         10
BTB BRANCH_INDIRECT_CALL	ACCESS:          0  HIT:          0  MISS:          0
BTB BRANCH_RETURN	ACCESS:      42053  HIT:      42040  MISS:         13
BTB BRANCH_OTHER ACCESS:          0  HIT:          0  MISS:          0

L2C TOTAL     ACCESS:    1911218  HIT:     108567  MISS:    1802651  HIT %:    5.68051  MISS %:    94.3195   MPKI: 72.106
L2C LOAD      ACCESS:      43391  HIT:       5743  MISS:      37648  HIT %:    13.2355  MISS %:    86.7645   MPKI: 1.50592
L2C DATA LOAD MPKI: 1.50592
L2C INSTRUCTION LOAD MPKI: 0
L2C RFO       ACCESS:         13  HIT:          0  MISS:         13  HIT %:          0  MISS %:        100   MPKI: 0.00052
L2C PREFETCH  ACCESS:    1788577  HIT:      32543  MISS:    1756034  HIT %:    1.81949  MISS %:    98.1805   MPKI: 70.2414
AGUS PREFETCH L1 MISS: 0
L2C DATA PREFETCH MPKI: 70.2414
L2C INSTRUCTION PREFETCH MPKI: 0
L2C WRITEBACK ACCESS:       2818  HIT:       2796  MISS:         22  HIT %:    99.2193  MISS %:   0.780696   MPKI: 0.00088
L2C LOAD TRANSLATION ACCESS:      22201  HIT:      17817  MISS:       4384  HIT %:    80.2531  MISS %:    19.7469   MPKI: 0.17536
L2C PREFETCH TRANSLATION ACCESS:      54204  HIT:      49667  MISS:       4537  HIT %:    91.6298  MISS %:    8.37023   MPKI: 0.18148
L2C TRANSLATION FROM L1D PREFETCHER ACCESS:         14  HIT:          1  MISS:         13  HIT %:    7.14286  MISS %:    92.8571   MPKI: 0.00052
L2C PREFETCH  REQUESTED:          0  ISSUED:          0  USEFUL:       5929  USELESS:    1746700
L2C USEFUL LOAD PREFETCHES:       5929 PREFETCH ISSUED TO LOWER LEVEL:    1756034  ACCURACY: 0.337636
L2C TIMELY PREFETCHES:       5929 LATE PREFETCHES: 0 DROPPED PREFETCHES: 0
L2C PREFETCHES SAME FILL-ORIGIN LEVEL: 0 DIFFERENT FILL-ORIGIN LEVEL: 0
L2C AVERAGE MISS LATENCY: 108.262 cycles
L2C RQ	ACCESS:     119822	FORWARD:          0	MERGED:          0	TO_CACHE:     119822
L2C WQ	ACCESS:       2818	FORWARD:          0	MERGED:          0	TO_CACHE:       2818
L2C PQ	ACCESS:    1788577	FORWARD:          0	MERGED:          0	TO_CACHE:    1788577

L2C Instructions Evicting Data 0
L2C Translations Evicting Data 8909
L2C Data Evicting Data 1784802
L2C Instructions Evicting Instructions 0
L2C Translations Evicting Instructions 0
L2C Data Evicting Instructions 0
L2C Instructions Evicting Translations 0
L2C Translations Evicting Translations 25
L2C Data Evicting Translations 8893
L2C Dense regions hint from L2: 0
PSCL5 TOTAL     ACCESS:      75662  HIT:      75662  MISS:          0  HIT %:        100  MISS %:          0   MPKI: 0
PSCL5 LOAD TRANSLATION ACCESS:      21629  HIT:      21629  MISS:          0  HIT %:        100  MISS %:          0   MPKI: 0
PSCL5 PREFETCH TRANSLATION ACCESS:      54025  HIT:      54025  MISS:          0  HIT %:        100  MISS %:          0   MPKI: 0
PSCL5 TRANSLATION FROM L1D PREFETCHER ACCESS:          8  HIT:          8  MISS:          0  HIT %:        100  MISS %:          0   MPKI: 0
PSCL5 PREFETCH  REQUESTED:          0  ISSUED:          0  USEFUL:          0  USELESS:          0
PSCL5 USEFUL LOAD PREFETCHES:          0 PREFETCH ISSUED TO LOWER LEVEL:          0  ACCURACY: -nan
PSCL5 TIMELY PREFETCHES:          0 LATE PREFETCHES: 0 DROPPED PREFETCHES: 0
PSCL5 PREFETCHES SAME FILL-ORIGIN LEVEL: 0 DIFFERENT FILL-ORIGIN LEVEL: 0

PSCL4 TOTAL     ACCESS:      75662  HIT:      75662  MISS:          0  HIT %:        100  MISS %:          0   MPKI: 0
PSCL4 LOAD TRANSLATION ACCESS:      21629  HIT:      21629  MISS:          0  HIT %:        100  MISS %:          0   MPKI: 0
PSCL4 PREFETCH TRANSLATION ACCESS:      54025  HIT:      54025  MISS:          0  HIT %:        100  MISS %:          0   MPKI: 0
PSCL4 TRANSLATION FROM L1D PREFETCHER ACCESS:          8  HIT:          8  MISS:          0  HIT %:        100  MISS %:          0   MPKI: 0
PSCL4 PREFETCH  REQUESTED:          0  ISSUED:          0  USEFUL:          0  USELESS:          0
PSCL4 USEFUL LOAD PREFETCHES:          0 PREFETCH ISSUED TO LOWER LEVEL:          0  ACCURACY: -nan
PSCL4 TIMELY PREFETCHES:          0 LATE PREFETCHES: 0 DROPPED PREFETCHES: 0
PSCL4 PREFETCHES SAME FILL-ORIGIN LEVEL: 0 DIFFERENT FILL-ORIGIN LEVEL: 0

PSCL3 TOTAL     ACCESS:      75183  HIT:      75180  MISS:          3  HIT %:     99.996  MISS %: 0.00399026   MPKI: 0.00012
PSCL3 LOAD TRANSLATION ACCESS:      21447  HIT:      21444  MISS:          3  HIT %:     99.986  MISS %:   0.013988   MPKI: 0.00012
PSCL3 PREFETCH TRANSLATION ACCESS:      53729  HIT:      53729  MISS:          0  HIT %:        100  MISS %:          0   MPKI: 0
PSCL3 TRANSLATION FROM L1D PREFETCHER ACCESS:          7  HIT:          7  MISS:          0  HIT %:        100  MISS %:          0   MPKI: 0
PSCL3 PREFETCH  REQUESTED:          0  ISSUED:          0  USEFUL:          0  USELESS:          0
PSCL3 USEFUL LOAD PREFETCHES:          0 PREFETCH ISSUED TO LOWER LEVEL:          0  ACCURACY: -nan
PSCL3 TIMELY PREFETCHES:          0 LATE PREFETCHES: 0 DROPPED PREFETCHES: 0
PSCL3 PREFETCHES SAME FILL-ORIGIN LEVEL: 0 DIFFERENT FILL-ORIGIN LEVEL: 0

PSCL2 TOTAL     ACCESS:      75242  HIT:      74533  MISS:        709  HIT %:    99.0577  MISS %:   0.942293   MPKI: 0.02836
PSCL2 LOAD TRANSLATION ACCESS:      21670  HIT:      20961  MISS:        709  HIT %:    96.7282  MISS %:     3.2718   MPKI: 0.02836
PSCL2 PREFETCH TRANSLATION ACCESS:      53569  HIT:      53569  MISS:          0  HIT %:        100  MISS %:          0   MPKI: 0
PSCL2 TRANSLATION FROM L1D PREFETCHER ACCESS:          3  HIT:          3  MISS:          0  HIT %:        100  MISS %:          0   MPKI: 0
PSCL2 PREFETCH  REQUESTED:          0  ISSUED:          0  USEFUL:          0  USELESS:          0
PSCL2 USEFUL LOAD PREFETCHES:          0 PREFETCH ISSUED TO LOWER LEVEL:          0  ACCURACY: -nan
PSCL2 TIMELY PREFETCHES:          0 LATE PREFETCHES: 0 DROPPED PREFETCHES: 0
PSCL2 PREFETCHES SAME FILL-ORIGIN LEVEL: 0 DIFFERENT FILL-ORIGIN LEVEL: 0

LLC TOTAL     ACCESS:    1805406  HIT:       5885  MISS:    1799521  HIT %:   0.325965  MISS %:     99.674   MPKI: 71.9808
LLC LOAD      ACCESS:      37648  HIT:        530  MISS:      37118  HIT %:    1.40778  MISS %:    98.5922   MPKI: 1.48472
LLC RFO       ACCESS:         13  HIT:          0  MISS:         13  HIT %:          0  MISS %:        100   MPKI: 0.00052
LLC PREFETCH  ACCESS:    1756034  HIT:       2136  MISS:    1753898  HIT %:   0.121638  MISS %:    99.8784   MPKI: 70.1559
AGUS PREFETCH L1 MISS: 0
LLC WRITEBACK ACCESS:       2777  HIT:       2765  MISS:         12  HIT %:    99.5679  MISS %:   0.432121   MPKI: 0.00048
LLC LOAD TRANSLATION ACCESS:       4384  HIT:        288  MISS:       4096  HIT %:    6.56934  MISS %:    93.4307   MPKI: 0.16384
LLC PREFETCH TRANSLATION ACCESS:       4537  HIT:        166  MISS:       4371  HIT %:    3.65881  MISS %:    96.3412   MPKI: 0.17484
LLC TRANSLATION FROM L1D PREFETCHER ACCESS:         13  HIT:          0  MISS:         13  HIT %:          0  MISS %:        100   MPKI: 0.00052
LLC PREFETCH  REQUESTED:          0  ISSUED:          0  USEFUL:        181  USELESS:    1726306
LLC USEFUL LOAD PREFETCHES:        181 PREFETCH ISSUED TO LOWER LEVEL:    1753898  ACCURACY: 0.0103199
LLC TIMELY PREFETCHES:        181 LATE PREFETCHES: 0 DROPPED PREFETCHES: 0
LLC PREFETCHES SAME FILL-ORIGIN LEVEL: 0 DIFFERENT FILL-ORIGIN LEVEL: 0
LLC AVERAGE MISS LATENCY: 78.2951 cycles
LLC RQ	ACCESS:      46594	FORWARD:          0	MERGED:          0	TO_CACHE:      46594
LLC WQ	ACCESS:       2777	FORWARD:          0	MERGED:          0	TO_CACHE:       2777
LLC PQ	ACCESS:    1756034	FORWARD:          0	MERGED:          0	TO_CACHE:    1756034

LLC Dense regions hint to LLC: 0

RAW hits: 4002
Loads Generated: 8976961
Loads sent to L1D: 8972959
Stores Generated: 370377
Stores sent to L1D: 370377
Major fault: 0 Minor fault: 48857
Allocated PAGES: 48857
CPU 0 L1D optimized prefetcher final stats
Degree: 5
CPU 0 STLB arbitrary stride prefetcher final stats
Degree: 8

DRAM Statistics
 CHANNEL 0
 RQ ROW_BUFFER_HIT:    1669686  ROW_BUFFER_MISS:     129822
 DBUS_CONGESTED:        421
 WQ ROW_BUFFER_HIT:        374  ROW_BUFFER_MISS:       2399  FULL:          0

 AVG_CONGESTED_CYCLE: 4
 All warmup complete: 2
Channel 0 Bank busy for read cycles: 0
Channel 0 Bank busy for write cycles: 0
Channel 0
Rank 0
0banks busy for read cycles: 16164169
0banks busy for write cycles: 1280
1banks busy for read cycles: 13758482
1banks busy for write cycles: 326622
2banks busy for read cycles: 27703282
2banks busy for write cycles: 162372
3banks busy for read cycles: 5233568
3banks busy for write cycles: 54290
4banks busy for read cycles: 988105
4banks busy for write cycles: 32759
5banks busy for read cycles: 726502
5banks busy for write cycles: 14743
6banks busy for read cycles: 1549282
6banks busy for write cycles: 5510
7banks busy for read cycles: 145154
7banks busy for write cycles: 4423
8banks busy for read cycles: 24884
8banks busy for write cycles: 1701

CPU 0 Branch Prediction Accuracy: 99.1323% MPKI: 3.09396 Average ROB Occupancy at Mispredict: 107.498
Branch types
NOT_BRANCH: 16085561 64.3422%
BRANCH_DIRECT_JUMP: 85874 0.343496%
BRANCH_INDIRECT: 0 0%
BRANCH_CONDITIONAL: 8744101 34.9764%
BRANCH_DIRECT_CALL: 42053 0.168212%
BRANCH_INDIRECT_CALL: 0 0%
BRANCH_RETURN: 42053 0.168212%
BRANCH_OTHER: 0 0%

DRAM PAGES: 1048576
Allocated PAGES: 48857
