
*** ChampSim Multicore Out-of-Order Simulator ***

Warmup Instructions: 25000000
Simulation Instructions: 25000000
Number of CPUs: 1
LLC sets: 2048
LLC ways: 16
Off-chip DRAM Size: 4096 MB Channels: 1 Width: 64-bit Data Rate: 6400 MT/s
CPU 0 runs ../traces/trace1.champsimtrace.xz
.xz
CPU 0 Bimodal branch predictor
BTB has LRU replacement policy
ITLB has LRU replacement policy
DTLB has LRU replacement policy
STLB has LRU replacement policy
L1I has LRU replacement policy
CPU 0 L1D Complex-Stride prefetcher
L1D has LRU replacement policy
L2C has LRU replacement policy
LLC has LRU replacement policy
Heartbeat CPU 0 instructions: 10000003 cycles: 2831602 heartbeat IPC: 3.53157 cumulative IPC: 3.53157 (Simulation time: 0 hr 0 min 19 sec) 
Heartbeat CPU 0 instructions: 20000000 cycles: 5653260 heartbeat IPC: 3.54401 cumulative IPC: 3.53778 (Simulation time: 0 hr 0 min 32 sec) 

Warmup complete CPU 0 instructions: 25000004 cycles: 7068297 (Simulation time: 0 hr 0 min 39 sec) 

Heartbeat CPU 0 instructions: 30000002 cycles: 19275151 heartbeat IPC: 0.734113 cumulative IPC: 0.409606 (Simulation time: 0 hr 0 min 57 sec) 
Heartbeat CPU 0 instructions: 40000002 cycles: 46048978 heartbeat IPC: 0.373499 cumulative IPC: 0.384806 (Simulation time: 0 hr 1 min 35 sec) 
Heartbeat CPU 0 instructions: 50000000 cycles: 69703105 heartbeat IPC: 0.422759 cumulative IPC: 0.399139 (Simulation time: 0 hr 2 min 11 sec) 
Finished CPU 0 instructions: 25000000 cycles: 62634809 cumulative IPC: 0.399139 (Simulation time: 0 hr 2 min 11 sec) 

ChampSim completed all CPUs

Region of Interest Statistics

CPU 0 cumulative IPC: 0.399139 instructions: 25000000 cycles: 62634809
ITLB TOTAL     ACCESS:    4487057  HIT:    4487057  MISS:          0  HIT %:        100  MISS %:          0   MPKI: 0
ITLB LOAD TRANSLATION ACCESS:    4487057  HIT:    4487057  MISS:          0  HIT %:        100  MISS %:          0   MPKI: 0
ITLB PREFETCH  REQUESTED:          0  ISSUED:          0  USEFUL:          0  USELESS:          0
ITLB USEFUL LOAD PREFETCHES:          0 PREFETCH ISSUED TO LOWER LEVEL:          0  ACCURACY: -nan
ITLB TIMELY PREFETCHES:          0 LATE PREFETCHES: 0 DROPPED PREFETCHES: 0
ITLB PREFETCHES SAME FILL-ORIGIN LEVEL: 0 DIFFERENT FILL-ORIGIN LEVEL: 0
ITLB AVERAGE MISS LATENCY: -nan cycles
ITLB RQ	ACCESS:    4828734	FORWARD:          0	MERGED:     341678	TO_CACHE:    4487056

DTLB TOTAL     ACCESS:    3804820  HIT:    3142162  MISS:     662658  HIT %:    82.5837  MISS %:    17.4163   MPKI: 26.5063
DTLB LOAD TRANSLATION ACCESS:    3804820  HIT:    3142162  MISS:     662658  HIT %:    82.5837  MISS %:    17.4163   MPKI: 26.5063
DTLB PREFETCH  REQUESTED:          0  ISSUED:          0  USEFUL:          0  USELESS:          0
DTLB USEFUL LOAD PREFETCHES:          0 PREFETCH ISSUED TO LOWER LEVEL:          0  ACCURACY: -nan
DTLB TIMELY PREFETCHES:          0 LATE PREFETCHES: 0 DROPPED PREFETCHES: 0
DTLB PREFETCHES SAME FILL-ORIGIN LEVEL: 0 DIFFERENT FILL-ORIGIN LEVEL: 0
DTLB AVERAGE MISS LATENCY: 78.699 cycles
DTLB RQ	ACCESS:    4398392	FORWARD:          0	MERGED:     589925	TO_CACHE:    3808467

STLB TOTAL     ACCESS:    3225094  HIT:    2662927  MISS:     562167  HIT %:     82.569  MISS %:     17.431   MPKI: 22.4867
STLB LOAD TRANSLATION ACCESS:     662657  HIT:     100692  MISS:     561965  HIT %:    15.1952  MISS %:    84.8048   MPKI: 22.4786
STLB TRANSLATION FROM L1D PREFETCHER ACCESS:    2562437  HIT:    2562235  MISS:        202  HIT %:    99.9921  MISS %: 0.00788312   MPKI: 0.00808
STLB PREFETCH  REQUESTED:          0  ISSUED:          0  USEFUL:        202  USELESS:          0
STLB USEFUL LOAD PREFETCHES:        202 PREFETCH ISSUED TO LOWER LEVEL:          0  ACCURACY: inf
STLB TIMELY PREFETCHES:        202 LATE PREFETCHES: 0 DROPPED PREFETCHES: 0
STLB PREFETCHES SAME FILL-ORIGIN LEVEL: 0 DIFFERENT FILL-ORIGIN LEVEL: 0
STLB AVERAGE MISS LATENCY: 82.0708 cycles
STLB RQ	ACCESS:   12708891	FORWARD:          0	MERGED:    9483792	TO_CACHE:    3225099

STLB Hit, L1D data hit: 0
STLB Hit, L2C data hit: 0
STLB Hit, LLC data hit: 0
STLB Hit, LLC data miss: 0
STLB STLB hints to L2: 0
L1D TOTAL     ACCESS:   15936869  HIT:   10544673  MISS:    5392196  HIT %:    66.1653  MISS %:    33.8347   MPKI: 215.688
L1D LOAD      ACCESS:    3268502  HIT:    2040682  MISS:    1227820  HIT %:    62.4348  MISS %:    37.5652   MPKI: 49.1128
L1D RFO       ACCESS:    1108665  HIT:    1039305  MISS:      69360  HIT %:    93.7438  MISS %:    6.25617   MPKI: 2.7744
L1D PREFETCH  ACCESS:   11559702  HIT:    7464686  MISS:    4095016  HIT %:    64.5751  MISS %:    35.4249   MPKI: 163.801
AGUS PREFETCH L1 MISS: 0
L1D PREFETCH  REQUESTED:   27986185  ISSUED:   27907738  USEFUL:      18456  USELESS:    4075981
L1D USEFUL LOAD PREFETCHES:      18456 PREFETCH ISSUED TO LOWER LEVEL:    4098737  ACCURACY: 0.450285
L1D TIMELY PREFETCHES:      18456 LATE PREFETCHES: 3718 DROPPED PREFETCHES: 0
L1D PREFETCHES SAME FILL-ORIGIN LEVEL: 4098737 DIFFERENT FILL-ORIGIN LEVEL: 0
L1D AVERAGE MISS LATENCY: 33238.6 cycles
L1D RQ	ACCESS:    6149367	FORWARD:          0	MERGED:    2807276	TO_CACHE:    3289725
L1D WQ	ACCESS:    1108674	FORWARD:      52366	MERGED:          7	TO_CACHE:    1108667
L1D PQ	ACCESS:   15861508	FORWARD:          0	MERGED:    3815278	TO_CACHE:   12046230

L1D UNIQUE REGIONS ACCESSED: 0
L1D REGIONS CONFLICTS: 0
L1D Cross Page Prefetch Requests: 0
L1D Same Page Prefetch Requests: 15861508
L1D ROI Sum of L1D PQ occupancy: 167886373
L1D PREFETCHES PUSHED FROM L2C: 0
L1I TOTAL     ACCESS:    4828734  HIT:    4828734  MISS:          0  HIT %:        100  MISS %:          0   MPKI: 0
L1I LOAD      ACCESS:    4828734  HIT:    4828734  MISS:          0  HIT %:        100  MISS %:          0   MPKI: 0
L1I PREFETCH  REQUESTED:          0  ISSUED:          0  USEFUL:          0  USELESS:          0
L1I USEFUL LOAD PREFETCHES:          0 PREFETCH ISSUED TO LOWER LEVEL:          0  ACCURACY: -nan
L1I TIMELY PREFETCHES:          0 LATE PREFETCHES: 0 DROPPED PREFETCHES: 0
L1I PREFETCHES SAME FILL-ORIGIN LEVEL: 0 DIFFERENT FILL-ORIGIN LEVEL: 0
L1I AVERAGE MISS LATENCY: -nan cycles
L1I RQ	ACCESS:    7352504	FORWARD:          0	MERGED:    2523770	TO_CACHE:    4828734

BTB TOTAL     ACCESS:    3283969  HIT:    3283961  MISS:          8  HIT %:    99.9998  MISS %: 0.000243608   MPKI: 0.00032
BTB BRANCH_DIRECT_JUMP	ACCESS:     568311  HIT:     568309  MISS:          2
BTB BRANCH_INDIRECT	ACCESS:          0  HIT:          0  MISS:          0
BTB BRANCH_CONDITIONAL	ACCESS:    1606988  HIT:    1606984  MISS:          4
BTB BRANCH_DIRECT_CALL	ACCESS:     554335  HIT:     554334  MISS:          1
BTB BRANCH_INDIRECT_CALL	ACCESS:          0  HIT:          0  MISS:          0
BTB BRANCH_RETURN	ACCESS:     554335  HIT:     554334  MISS:          1
BTB BRANCH_OTHER ACCESS:          0  HIT:          0  MISS:          0

L2C TOTAL     ACCESS:    6585977  HIT:    1953434  MISS:    4632543  HIT %:    29.6605  MISS %:    70.3395   MPKI: 185.302
L2C LOAD      ACCESS:    1224102  HIT:     302396  MISS:     921706  HIT %:    24.7035  MISS %:    75.2965   MPKI: 36.8682
L2C DATA LOAD MPKI: 36.8682
L2C INSTRUCTION LOAD MPKI: 0
L2C RFO       ACCESS:      69360  HIT:        783  MISS:      68577  HIT %:    1.12889  MISS %:    98.8711   MPKI: 2.74308
L2C PREFETCH  ACCESS:    4098734  HIT:    1017169  MISS:    3081565  HIT %:    24.8167  MISS %:    75.1833   MPKI: 123.263
AGUS PREFETCH L1 MISS: 0
L2C DATA PREFETCH MPKI: 123.263
L2C INSTRUCTION PREFETCH MPKI: 0
L2C WRITEBACK ACCESS:     554588  HIT:     554584  MISS:          4  HIT %:    99.9993  MISS %: 0.000721256   MPKI: 0.00016
L2C LOAD TRANSLATION ACCESS:     638789  HIT:      78502  MISS:     560287  HIT %:    12.2892  MISS %:    87.7108   MPKI: 22.4115
L2C TRANSLATION FROM L1D PREFETCHER ACCESS:        404  HIT:          0  MISS:        404  HIT %:          0  MISS %:        100   MPKI: 0.01616
L2C PREFETCH  REQUESTED:          0  ISSUED:          0  USEFUL:       3805  USELESS:    3072803
L2C USEFUL LOAD PREFETCHES:       3805 PREFETCH ISSUED TO LOWER LEVEL:    3081568  ACCURACY: 0.123476
L2C TIMELY PREFETCHES:       3805 LATE PREFETCHES: 0 DROPPED PREFETCHES: 0
L2C PREFETCHES SAME FILL-ORIGIN LEVEL: 0 DIFFERENT FILL-ORIGIN LEVEL: 0
L2C AVERAGE MISS LATENCY: 65.0473 cycles
L2C RQ	ACCESS:    1932656	FORWARD:          0	MERGED:          0	TO_CACHE:    1932656
L2C WQ	ACCESS:     554588	FORWARD:          0	MERGED:          0	TO_CACHE:     554588
L2C PQ	ACCESS:    4098737	FORWARD:          0	MERGED:          0	TO_CACHE:    4098737

L2C Instructions Evicting Data 0
L2C Translations Evicting Data 475281
L2C Data Evicting Data 3594795
L2C Instructions Evicting Instructions 0
L2C Translations Evicting Instructions 0
L2C Data Evicting Instructions 0
L2C Instructions Evicting Translations 0
L2C Translations Evicting Translations 85410
L2C Data Evicting Translations 477053
L2C Dense regions hint from L2: 0
PSCL5 TOTAL     ACCESS:     562169  HIT:     562169  MISS:          0  HIT %:        100  MISS %:          0   MPKI: 0
PSCL5 LOAD TRANSLATION ACCESS:     561967  HIT:     561967  MISS:          0  HIT %:        100  MISS %:          0   MPKI: 0
PSCL5 TRANSLATION FROM L1D PREFETCHER ACCESS:        202  HIT:        202  MISS:          0  HIT %:        100  MISS %:          0   MPKI: 0
PSCL5 PREFETCH  REQUESTED:          0  ISSUED:          0  USEFUL:          0  USELESS:          0
PSCL5 USEFUL LOAD PREFETCHES:          0 PREFETCH ISSUED TO LOWER LEVEL:          0  ACCURACY: -nan
PSCL5 TIMELY PREFETCHES:          0 LATE PREFETCHES: 0 DROPPED PREFETCHES: 0
PSCL5 PREFETCHES SAME FILL-ORIGIN LEVEL: 0 DIFFERENT FILL-ORIGIN LEVEL: 0

PSCL4 TOTAL     ACCESS:     562169  HIT:     562169  MISS:          0  HIT %:        100  MISS %:          0   MPKI: 0
PSCL4 LOAD TRANSLATION ACCESS:     561967  HIT:     561967  MISS:          0  HIT %:        100  MISS %:          0   MPKI: 0
PSCL4 TRANSLATION FROM L1D PREFETCHER ACCESS:        202  HIT:        202  MISS:          0  HIT %:        100  MISS %:          0   MPKI: 0
PSCL4 PREFETCH  REQUESTED:          0  ISSUED:          0  USEFUL:          0  USELESS:          0
PSCL4 USEFUL LOAD PREFETCHES:          0 PREFETCH ISSUED TO LOWER LEVEL:          0  ACCURACY: -nan
PSCL4 TIMELY PREFETCHES:          0 LATE PREFETCHES: 0 DROPPED PREFETCHES: 0
PSCL4 PREFETCHES SAME FILL-ORIGIN LEVEL: 0 DIFFERENT FILL-ORIGIN LEVEL: 0

PSCL3 TOTAL     ACCESS:     562169  HIT:     562169  MISS:          0  HIT %:        100  MISS %:          0   MPKI: 0
PSCL3 LOAD TRANSLATION ACCESS:     561967  HIT:     561967  MISS:          0  HIT %:        100  MISS %:          0   MPKI: 0
PSCL3 TRANSLATION FROM L1D PREFETCHER ACCESS:        202  HIT:        202  MISS:          0  HIT %:        100  MISS %:          0   MPKI: 0
PSCL3 PREFETCH  REQUESTED:          0  ISSUED:          0  USEFUL:          0  USELESS:          0
PSCL3 USEFUL LOAD PREFETCHES:          0 PREFETCH ISSUED TO LOWER LEVEL:          0  ACCURACY: -nan
PSCL3 TIMELY PREFETCHES:          0 LATE PREFETCHES: 0 DROPPED PREFETCHES: 0
PSCL3 PREFETCHES SAME FILL-ORIGIN LEVEL: 0 DIFFERENT FILL-ORIGIN LEVEL: 0

PSCL2 TOTAL     ACCESS:     562168  HIT:     485143  MISS:      77025  HIT %:    86.2986  MISS %:    13.7014   MPKI: 3.081
PSCL2 LOAD TRANSLATION ACCESS:     562168  HIT:     485143  MISS:      77025  HIT %:    86.2986  MISS %:    13.7014   MPKI: 3.081
PSCL2 PREFETCH  REQUESTED:          0  ISSUED:          0  USEFUL:          0  USELESS:          0
PSCL2 USEFUL LOAD PREFETCHES:          0 PREFETCH ISSUED TO LOWER LEVEL:          0  ACCURACY: -nan
PSCL2 TIMELY PREFETCHES:          0 LATE PREFETCHES: 0 DROPPED PREFETCHES: 0
PSCL2 PREFETCHES SAME FILL-ORIGIN LEVEL: 0 DIFFERENT FILL-ORIGIN LEVEL: 0

LLC TOTAL     ACCESS:    5189914  HIT:    4436454  MISS:     753460  HIT %:    85.4822  MISS %:    14.5178   MPKI: 30.1384
LLC LOAD      ACCESS:     921706  HIT:     884188  MISS:      37518  HIT %:    95.9295  MISS %:     4.0705   MPKI: 1.50072
LLC RFO       ACCESS:      68577  HIT:      67837  MISS:        740  HIT %:    98.9209  MISS %:    1.07908   MPKI: 0.0296
LLC PREFETCH  ACCESS:    3081565  HIT:    2377645  MISS:     703920  HIT %:    77.1571  MISS %:    22.8429   MPKI: 28.1568
AGUS PREFETCH L1 MISS: 0
LLC WRITEBACK ACCESS:     557375  HIT:     557375  MISS:          0  HIT %:        100  MISS %:          0   MPKI: 0
LLC LOAD TRANSLATION ACCESS:     560287  HIT:     549018  MISS:      11269  HIT %:    97.9887  MISS %:    2.01129   MPKI: 0.45076
LLC TRANSLATION FROM L1D PREFETCHER ACCESS:        404  HIT:        391  MISS:         13  HIT %:    96.7822  MISS %:    3.21782   MPKI: 0.00052
LLC PREFETCH  REQUESTED:          0  ISSUED:          0  USEFUL:     604915  USELESS:      84510
LLC USEFUL LOAD PREFETCHES:     604915 PREFETCH ISSUED TO LOWER LEVEL:     703923  ACCURACY: 85.9348
LLC TIMELY PREFETCHES:     604915 LATE PREFETCHES: 0 DROPPED PREFETCHES: 0
LLC PREFETCHES SAME FILL-ORIGIN LEVEL: 0 DIFFERENT FILL-ORIGIN LEVEL: 0
LLC AVERAGE MISS LATENCY: 211.687 cycles
LLC RQ	ACCESS:    1550974	FORWARD:          0	MERGED:          0	TO_CACHE:    1550974
LLC WQ	ACCESS:     557375	FORWARD:          0	MERGED:          0	TO_CACHE:     557375
LLC PQ	ACCESS:    3081568	FORWARD:          0	MERGED:          0	TO_CACHE:    3081568

LLC Dense regions hint to LLC: 0

RAW hits: 501166
Loads Generated: 6650535
Loads sent to L1D: 6149367
Stores Generated: 1108672
Stores sent to L1D: 1108674
Major fault: 0 Minor fault: 23115
Allocated PAGES: 23115
CPU 0 L1D optimized prefetcher final stats
Degree: 5

DRAM Statistics
 CHANNEL 0
 RQ ROW_BUFFER_HIT:       9362  ROW_BUFFER_MISS:     744099
 DBUS_CONGESTED:          5
 WQ ROW_BUFFER_HIT:     151423  ROW_BUFFER_MISS:     416999  FULL:          0

 AVG_CONGESTED_CYCLE: 4
 All warmup complete: 2
Channel 0 Bank busy for read cycles: 0
Channel 0 Bank busy for write cycles: 0
Channel 0
Rank 0
0banks busy for read cycles: 330225
0banks busy for write cycles: 228
1banks busy for read cycles: 11438861
1banks busy for write cycles: 161184
2banks busy for read cycles: 14704189
2banks busy for write cycles: 153109
3banks busy for read cycles: 10153922
3banks busy for write cycles: 151099
4banks busy for read cycles: 4315830
4banks busy for write cycles: 152739
5banks busy for read cycles: 1160720
5banks busy for write cycles: 162975
6banks busy for read cycles: 1848607
6banks busy for write cycles: 196409
7banks busy for read cycles: 751490
7banks busy for write cycles: 940522
8banks busy for read cycles: 309934
8banks busy for write cycles: 15702767

CPU 0 Branch Prediction Accuracy: 99.9685% MPKI: 0.04912 Average ROB Occupancy at Mispredict: 156.94
Branch types
NOT_BRANCH: 21105674 84.4227%
BRANCH_DIRECT_JUMP: 568311 2.27324%
BRANCH_INDIRECT: 0 0%
BRANCH_CONDITIONAL: 2217340 8.86936%
BRANCH_DIRECT_CALL: 554335 2.21734%
BRANCH_INDIRECT_CALL: 0 0%
BRANCH_RETURN: 554335 2.21734%
BRANCH_OTHER: 0 0%

DRAM PAGES: 1048576
Allocated PAGES: 23115
