
*** ChampSim Multicore Out-of-Order Simulator ***

Warmup Instructions: 25000000
Simulation Instructions: 25000000
Number of CPUs: 1
LLC sets: 2048
LLC ways: 16
Off-chip DRAM Size: 4096 MB Channels: 1 Width: 64-bit Data Rate: 6400 MT/s
CPU 0 runs ../traces/trace3.champsimtrace.xz
.xz
CPU 0 Bimodal branch predictor
BTB has LRU replacement policy
ITLB has LRU replacement policy
DTLB has LRU replacement policy
STLB has LRU replacement policy
L1I has LRU replacement policy
CPU 0 L1D Next-line prefetcher
L1D has LRU replacement policy
L2C has LRU replacement policy
LLC has LRU replacement policy
Heartbeat CPU 0 instructions: 10000001 cycles: 3807437 heartbeat IPC: 2.62644 cumulative IPC: 2.62644 (Simulation time: 0 hr 0 min 27 sec) 
Heartbeat CPU 0 instructions: 20000000 cycles: 7588031 heartbeat IPC: 2.64509 cumulative IPC: 2.63573 (Simulation time: 0 hr 0 min 48 sec) 

Warmup complete CPU 0 instructions: 25000004 cycles: 9507175 (Simulation time: 0 hr 0 min 59 sec) 

Heartbeat CPU 0 instructions: 30000001 cycles: 50756427 heartbeat IPC: 0.231651 cumulative IPC: 0.121214 (Simulation time: 0 hr 1 min 31 sec) 
Heartbeat CPU 0 instructions: 40000001 cycles: 131126768 heartbeat IPC: 0.124424 cumulative IPC: 0.123335 (Simulation time: 0 hr 2 min 30 sec) 
Heartbeat CPU 0 instructions: 50000000 cycles: 212805544 heartbeat IPC: 0.122431 cumulative IPC: 0.122972 (Simulation time: 0 hr 3 min 31 sec) 
Finished CPU 0 instructions: 25000000 cycles: 203298371 cumulative IPC: 0.122972 (Simulation time: 0 hr 3 min 31 sec) 

ChampSim completed all CPUs

Region of Interest Statistics

CPU 0 cumulative IPC: 0.122972 instructions: 25000000 cycles: 203298371
ITLB TOTAL     ACCESS:    4088822  HIT:    4088822  MISS:          0  HIT %:        100  MISS %:          0   MPKI: 0
ITLB LOAD TRANSLATION ACCESS:    4088822  HIT:    4088822  MISS:          0  HIT %:        100  MISS %:          0   MPKI: 0
ITLB PREFETCH  REQUESTED:          0  ISSUED:          0  USEFUL:          0  USELESS:          0
ITLB USEFUL LOAD PREFETCHES:          0 PREFETCH ISSUED TO LOWER LEVEL:          0  ACCURACY: -nan
ITLB TIMELY PREFETCHES:          0 LATE PREFETCHES: 0 DROPPED PREFETCHES: 0
ITLB PREFETCHES SAME FILL-ORIGIN LEVEL: 0 DIFFERENT FILL-ORIGIN LEVEL: 0
ITLB AVERAGE MISS LATENCY: -nan cycles
ITLB RQ	ACCESS:    4139895	FORWARD:          0	MERGED:      51074	TO_CACHE:    4088821

DTLB TOTAL     ACCESS:    5216913  HIT:    3012894  MISS:    2204019  HIT %:    57.7524  MISS %:    42.2476   MPKI: 88.1608
DTLB LOAD TRANSLATION ACCESS:    5216913  HIT:    3012894  MISS:    2204019  HIT %:    57.7524  MISS %:    42.2476   MPKI: 88.1608
DTLB PREFETCH  REQUESTED:          0  ISSUED:          0  USEFUL:          0  USELESS:          0
DTLB USEFUL LOAD PREFETCHES:          0 PREFETCH ISSUED TO LOWER LEVEL:          0  ACCURACY: -nan
DTLB TIMELY PREFETCHES:          0 LATE PREFETCHES: 0 DROPPED PREFETCHES: 0
DTLB PREFETCHES SAME FILL-ORIGIN LEVEL: 0 DIFFERENT FILL-ORIGIN LEVEL: 0
DTLB AVERAGE MISS LATENCY: 11.7196 cycles
DTLB RQ	ACCESS:    5744019	FORWARD:          0	MERGED:     493607	TO_CACHE:    5250412

STLB TOTAL     ACCESS:    6102458  HIT:    6073533  MISS:      28925  HIT %:     99.526  MISS %:   0.473989   MPKI: 1.157
STLB LOAD TRANSLATION ACCESS:    2204019  HIT:    2175094  MISS:      28925  HIT %:    98.6876  MISS %:    1.31238   MPKI: 1.157
STLB TRANSLATION FROM L1D PREFETCHER ACCESS:    3898439  HIT:    3898439  MISS:          0  HIT %:        100  MISS %:          0   MPKI: 0
STLB PREFETCH  REQUESTED:          0  ISSUED:          0  USEFUL:          0  USELESS:          0
STLB USEFUL LOAD PREFETCHES:          0 PREFETCH ISSUED TO LOWER LEVEL:          0  ACCURACY: -nan
STLB TIMELY PREFETCHES:          0 LATE PREFETCHES: 0 DROPPED PREFETCHES: 0
STLB PREFETCHES SAME FILL-ORIGIN LEVEL: 0 DIFFERENT FILL-ORIGIN LEVEL: 0
STLB AVERAGE MISS LATENCY: 179.819 cycles
STLB RQ	ACCESS:   19481689	FORWARD:          0	MERGED:   13379232	TO_CACHE:    6102457

STLB Hit, L1D data hit: 0
STLB Hit, L2C data hit: 0
STLB Hit, LLC data hit: 0
STLB Hit, LLC data miss: 0
STLB STLB hints to L2: 0
L1D TOTAL     ACCESS:   21340289  HIT:    8343953  MISS:   12996336  HIT %:    39.0995  MISS %:    60.9005   MPKI: 519.853
L1D LOAD      ACCESS:    5230113  HIT:    2181350  MISS:    3048763  HIT %:    41.7075  MISS %:    58.2925   MPKI: 121.951
L1D RFO       ACCESS:     421279  HIT:     413376  MISS:       7903  HIT %:     98.124  MISS %:    1.87595   MPKI: 0.31612
L1D PREFETCH  ACCESS:   15688897  HIT:    5749227  MISS:    9939670  HIT %:    36.6452  MISS %:    63.3548   MPKI: 397.587
AGUS PREFETCH L1 MISS: 0
L1D PREFETCH  REQUESTED:   42390850  ISSUED:   38338133  USEFUL:     921720  USELESS:    9017860
L1D USEFUL LOAD PREFETCHES:     921720 PREFETCH ISSUED TO LOWER LEVEL:   10275682  ACCURACY: 8.96992
L1D TIMELY PREFETCHES:     921720 LATE PREFETCHES: 335998 DROPPED PREFETCHES: 0
L1D PREFETCHES SAME FILL-ORIGIN LEVEL: 10275682 DIFFERENT FILL-ORIGIN LEVEL: 0
L1D AVERAGE MISS LATENCY: 2.89383e+06 cycles
L1D RQ	ACCESS:    8954172	FORWARD:          0	MERGED:    3586930	TO_CACHE:    5299776
L1D WQ	ACCESS:     459661	FORWARD:      71460	MERGED:      15418	TO_CACHE:     444243
L1D PQ	ACCESS:   21060463	FORWARD:          0	MERGED:    3778799	TO_CACHE:   17277670

L1D UNIQUE REGIONS ACCESSED: 0
L1D REGIONS CONFLICTS: 0
L1D Cross Page Prefetch Requests: 0
L1D Same Page Prefetch Requests: 36222326
L1D ROI Sum of L1D PQ occupancy: 924620453
L1D PREFETCHES PUSHED FROM L2C: 0
L1I TOTAL     ACCESS:    4139896  HIT:    4139896  MISS:          0  HIT %:        100  MISS %:          0   MPKI: 0
L1I LOAD      ACCESS:    4139896  HIT:    4139896  MISS:          0  HIT %:        100  MISS %:          0   MPKI: 0
L1I PREFETCH  REQUESTED:          0  ISSUED:          0  USEFUL:          0  USELESS:          0
L1I USEFUL LOAD PREFETCHES:          0 PREFETCH ISSUED TO LOWER LEVEL:          0  ACCURACY: -nan
L1I TIMELY PREFETCHES:          0 LATE PREFETCHES: 0 DROPPED PREFETCHES: 0
L1I PREFETCHES SAME FILL-ORIGIN LEVEL: 0 DIFFERENT FILL-ORIGIN LEVEL: 0
L1I AVERAGE MISS LATENCY: -nan cycles
L1I RQ	ACCESS:    5563672	FORWARD:          0	MERGED:    1423777	TO_CACHE:    4139895

BTB TOTAL     ACCESS:    7381233  HIT:    7359090  MISS:      22143  HIT %:       99.7  MISS %:   0.299991   MPKI: 0.88572
BTB BRANCH_DIRECT_JUMP	ACCESS:     954613  HIT:     954578  MISS:         35
BTB BRANCH_INDIRECT	ACCESS:          0  HIT:          0  MISS:          0
BTB BRANCH_CONDITIONAL	ACCESS:    6254608  HIT:    6254529  MISS:         79
BTB BRANCH_DIRECT_CALL	ACCESS:      79755  HIT:      79739  MISS:         16
BTB BRANCH_INDIRECT_CALL	ACCESS:       6250  HIT:       6242  MISS:          8
BTB BRANCH_RETURN	ACCESS:      86007  HIT:      64002  MISS:      22005
BTB BRANCH_OTHER ACCESS:          0  HIT:          0  MISS:          0

L2C TOTAL     ACCESS:   13115099  HIT:    1810593  MISS:   11304506  HIT %:    13.8054  MISS %:    86.1946   MPKI: 452.18
L2C LOAD      ACCESS:    2712750  HIT:     395182  MISS:    2317568  HIT %:    14.5676  MISS %:    85.4324   MPKI: 92.7027
L2C DATA LOAD MPKI: 92.7027
L2C INSTRUCTION LOAD MPKI: 0
L2C RFO       ACCESS:       7898  HIT:        751  MISS:       7147  HIT %:    9.50874  MISS %:    90.4913   MPKI: 0.28588
L2C PREFETCH  ACCESS:   10275669  HIT:    1305311  MISS:    8970358  HIT %:    12.7029  MISS %:    87.2971   MPKI: 358.814
AGUS PREFETCH L1 MISS: 0
L2C DATA PREFETCH MPKI: 358.814
L2C INSTRUCTION PREFETCH MPKI: 0
L2C WRITEBACK ACCESS:      89694  HIT:      89694  MISS:          0  HIT %:        100  MISS %:          0   MPKI: 0
L2C LOAD TRANSLATION ACCESS:      29088  HIT:      19655  MISS:       9433  HIT %:    67.5708  MISS %:    32.4292   MPKI: 0.37732
L2C PREFETCH  REQUESTED:          0  ISSUED:          0  USEFUL:     189725  USELESS:    8779087
L2C USEFUL LOAD PREFETCHES:     189725 PREFETCH ISSUED TO LOWER LEVEL:    8970367  ACCURACY: 2.11502
L2C TIMELY PREFETCHES:     189725 LATE PREFETCHES: 0 DROPPED PREFETCHES: 0
L2C PREFETCHES SAME FILL-ORIGIN LEVEL: 0 DIFFERENT FILL-ORIGIN LEVEL: 0
L2C AVERAGE MISS LATENCY: 167.614 cycles
L2C RQ	ACCESS:    2749751	FORWARD:          0	MERGED:          0	TO_CACHE:    2749736
L2C WQ	ACCESS:      89694	FORWARD:         19	MERGED:          0	TO_CACHE:      89694
L2C PQ	ACCESS:   10275682	FORWARD:          0	MERGED:          0	TO_CACHE:   10275678

L2C Instructions Evicting Data 0
L2C Translations Evicting Data 9426
L2C Data Evicting Data 11285648
L2C Instructions Evicting Instructions 0
L2C Translations Evicting Instructions 0
L2C Data Evicting Instructions 0
L2C Instructions Evicting Translations 0
L2C Translations Evicting Translations 7
L2C Data Evicting Translations 9425
L2C Dense regions hint from L2: 0
PSCL5 TOTAL     ACCESS:      28925  HIT:      28925  MISS:          0  HIT %:        100  MISS %:          0   MPKI: 0
PSCL5 LOAD TRANSLATION ACCESS:      28925  HIT:      28925  MISS:          0  HIT %:        100  MISS %:          0   MPKI: 0
PSCL5 PREFETCH  REQUESTED:          0  ISSUED:          0  USEFUL:          0  USELESS:          0
PSCL5 USEFUL LOAD PREFETCHES:          0 PREFETCH ISSUED TO LOWER LEVEL:          0  ACCURACY: -nan
PSCL5 TIMELY PREFETCHES:          0 LATE PREFETCHES: 0 DROPPED PREFETCHES: 0
PSCL5 PREFETCHES SAME FILL-ORIGIN LEVEL: 0 DIFFERENT FILL-ORIGIN LEVEL: 0

PSCL4 TOTAL     ACCESS:      28925  HIT:      28925  MISS:          0  HIT %:        100  MISS %:          0   MPKI: 0
PSCL4 LOAD TRANSLATION ACCESS:      28925  HIT:      28925  MISS:          0  HIT %:        100  MISS %:          0   MPKI: 0
PSCL4 PREFETCH  REQUESTED:          0  ISSUED:          0  USEFUL:          0  USELESS:          0
PSCL4 USEFUL LOAD PREFETCHES:          0 PREFETCH ISSUED TO LOWER LEVEL:          0  ACCURACY: -nan
PSCL4 TIMELY PREFETCHES:          0 LATE PREFETCHES: 0 DROPPED PREFETCHES: 0
PSCL4 PREFETCHES SAME FILL-ORIGIN LEVEL: 0 DIFFERENT FILL-ORIGIN LEVEL: 0

PSCL3 TOTAL     ACCESS:      28925  HIT:      28925  MISS:          0  HIT %:        100  MISS %:          0   MPKI: 0
PSCL3 LOAD TRANSLATION ACCESS:      28925  HIT:      28925  MISS:          0  HIT %:        100  MISS %:          0   MPKI: 0
PSCL3 PREFETCH  REQUESTED:          0  ISSUED:          0  USEFUL:          0  USELESS:          0
PSCL3 USEFUL LOAD PREFETCHES:          0 PREFETCH ISSUED TO LOWER LEVEL:          0  ACCURACY: -nan
PSCL3 TIMELY PREFETCHES:          0 LATE PREFETCHES: 0 DROPPED PREFETCHES: 0
PSCL3 PREFETCHES SAME FILL-ORIGIN LEVEL: 0 DIFFERENT FILL-ORIGIN LEVEL: 0

PSCL2 TOTAL     ACCESS:      28925  HIT:      28626  MISS:        299  HIT %:    98.9663  MISS %:    1.03371   MPKI: 0.01196
PSCL2 LOAD TRANSLATION ACCESS:      28925  HIT:      28626  MISS:        299  HIT %:    98.9663  MISS %:    1.03371   MPKI: 0.01196
PSCL2 PREFETCH  REQUESTED:          0  ISSUED:          0  USEFUL:          0  USELESS:          0
PSCL2 USEFUL LOAD PREFETCHES:          0 PREFETCH ISSUED TO LOWER LEVEL:          0  ACCURACY: -nan
PSCL2 TIMELY PREFETCHES:          0 LATE PREFETCHES: 0 DROPPED PREFETCHES: 0
PSCL2 PREFETCHES SAME FILL-ORIGIN LEVEL: 0 DIFFERENT FILL-ORIGIN LEVEL: 0

LLC TOTAL     ACCESS:   11382994  HIT:    5070534  MISS:    6312460  HIT %:    44.5448  MISS %:    55.4552   MPKI: 252.498
LLC LOAD      ACCESS:    2317568  HIT:    1083801  MISS:    1233767  HIT %:    46.7646  MISS %:    53.2354   MPKI: 49.3507
LLC RFO       ACCESS:       7147  HIT:       3496  MISS:       3651  HIT %:    48.9156  MISS %:    51.0844   MPKI: 0.14604
LLC PREFETCH  ACCESS:    8970359  HIT:    3903726  MISS:    5066633  HIT %:    43.5181  MISS %:    56.4819   MPKI: 202.665
AGUS PREFETCH L1 MISS: 0
LLC WRITEBACK ACCESS:      78487  HIT:      78446  MISS:         41  HIT %:    99.9478  MISS %:   0.052238   MPKI: 0.00164
LLC LOAD TRANSLATION ACCESS:       9433  HIT:       1065  MISS:       8368  HIT %:    11.2902  MISS %:    88.7098   MPKI: 0.33472
LLC PREFETCH  REQUESTED:          0  ISSUED:          0  USEFUL:     200044  USELESS:    4861819
LLC USEFUL LOAD PREFETCHES:     200044 PREFETCH ISSUED TO LOWER LEVEL:    5066641  ACCURACY: 3.94826
LLC TIMELY PREFETCHES:     200044 LATE PREFETCHES: 0 DROPPED PREFETCHES: 0
LLC PREFETCHES SAME FILL-ORIGIN LEVEL: 0 DIFFERENT FILL-ORIGIN LEVEL: 0
LLC AVERAGE MISS LATENCY: 245.744 cycles
LLC RQ	ACCESS:    2334148	FORWARD:          0	MERGED:          0	TO_CACHE:    2334148
LLC WQ	ACCESS:      78487	FORWARD:          0	MERGED:          0	TO_CACHE:      78487
LLC PQ	ACCESS:    8970367	FORWARD:          0	MERGED:          0	TO_CACHE:    8970367

LLC Dense regions hint to LLC: 0

RAW hits: 60155
Loads Generated: 9014327
Loads sent to L1D: 8954172
Stores Generated: 459660
Stores sent to L1D: 459661
Major fault: 0 Minor fault: 44120
Allocated PAGES: 44120
CPU 0 L1D nextline prefetcher final stats
Degree: 5

DRAM Statistics
 CHANNEL 0
 RQ ROW_BUFFER_HIT:     323047  ROW_BUFFER_MISS:    5988371
 DBUS_CONGESTED:         89
 WQ ROW_BUFFER_HIT:      15430  ROW_BUFFER_MISS:      42653  FULL:          0

 AVG_CONGESTED_CYCLE: 3
 All warmup complete: 2
Channel 0 Bank busy for read cycles: 0
Channel 0 Bank busy for write cycles: 0
Channel 0
Rank 0
0banks busy for read cycles: 14950971
0banks busy for write cycles: 7442
1banks busy for read cycles: 16248650
1banks busy for write cycles: 2907001
2banks busy for read cycles: 14768420
2banks busy for write cycles: 1628684
3banks busy for read cycles: 14625787
3banks busy for write cycles: 1049881
4banks busy for read cycles: 16734594
4banks busy for write cycles: 709263
5banks busy for read cycles: 24729303
5banks busy for write cycles: 499365
6banks busy for read cycles: 38018872
6banks busy for write cycles: 340668
7banks busy for read cycles: 32839582
7banks busy for write cycles: 341758
8banks busy for read cycles: 22077859
8banks busy for write cycles: 820272

CPU 0 Branch Prediction Accuracy: 96.3142% MPKI: 11.2642 Average ROB Occupancy at Mispredict: 47.7545
Branch types
NOT_BRANCH: 17359361 69.4374%
BRANCH_DIRECT_JUMP: 954613 3.81845%
BRANCH_INDIRECT: 0 0%
BRANCH_CONDITIONAL: 6513665 26.0547%
BRANCH_DIRECT_CALL: 79755 0.31902%
BRANCH_INDIRECT_CALL: 6250 0.025%
BRANCH_RETURN: 86007 0.344028%
BRANCH_OTHER: 0 0%

DRAM PAGES: 1048576
Allocated PAGES: 44120
