
*** ChampSim Multicore Out-of-Order Simulator ***

Warmup Instructions: 25000000
Simulation Instructions: 25000000
Number of CPUs: 1
LLC sets: 2048
LLC ways: 16
Off-chip DRAM Size: 4096 MB Channels: 1 Width: 64-bit Data Rate: 6400 MT/s
CPU 0 runs ../traces/trace1.champsimtrace.xz
.xz
CPU 0 Bimodal branch predictor
BTB has LRU replacement policy
ITLB has LRU replacement policy
DTLB has LRU replacement policy
CPU 0 STLB arbitrary stride prefetcher
STLB has LRU replacement policy
L1I has LRU replacement policy
L1D has LRU replacement policy
L2C has LRU replacement policy
LLC has LRU replacement policy
Heartbeat CPU 0 instructions: 10000003 cycles: 2826622 heartbeat IPC: 3.53779 cumulative IPC: 3.53779 (Simulation time: 0 hr 0 min 14 sec) 
Heartbeat CPU 0 instructions: 20000003 cycles: 5643804 heartbeat IPC: 3.54965 cumulative IPC: 3.54371 (Simulation time: 0 hr 0 min 28 sec) 

Warmup complete CPU 0 instructions: 25000004 cycles: 7057060 (Simulation time: 0 hr 0 min 35 sec) 

Heartbeat CPU 0 instructions: 30000002 cycles: 24107995 heartbeat IPC: 0.541589 cumulative IPC: 0.293239 (Simulation time: 0 hr 0 min 52 sec) 
Heartbeat CPU 0 instructions: 40000001 cycles: 60628521 heartbeat IPC: 0.273819 cumulative IPC: 0.28 (Simulation time: 0 hr 1 min 26 sec) 
Heartbeat CPU 0 instructions: 50000003 cycles: 95963166 heartbeat IPC: 0.283008 cumulative IPC: 0.281196 (Simulation time: 0 hr 2 min 1 sec) 
Finished CPU 0 instructions: 25000003 cycles: 88906107 cumulative IPC: 0.281196 (Simulation time: 0 hr 2 min 1 sec) 

ChampSim completed all CPUs

Region of Interest Statistics

CPU 0 cumulative IPC: 0.281196 instructions: 25000003 cycles: 88906107
ITLB TOTAL     ACCESS:    4447075  HIT:    4447075  MISS:          0  HIT %:        100  MISS %:          0   MPKI: 0
ITLB LOAD TRANSLATION ACCESS:    4447075  HIT:    4447075  MISS:          0  HIT %:        100  MISS %:          0   MPKI: 0
ITLB PREFETCH  REQUESTED:          0  ISSUED:          0  USEFUL:          0  USELESS:          0
ITLB USEFUL LOAD PREFETCHES:          0 PREFETCH ISSUED TO LOWER LEVEL:          0  ACCURACY: -nan
ITLB TIMELY PREFETCHES:          0 LATE PREFETCHES: 0 DROPPED PREFETCHES: 0
ITLB PREFETCHES SAME FILL-ORIGIN LEVEL: 0 DIFFERENT FILL-ORIGIN LEVEL: 0
ITLB AVERAGE MISS LATENCY: -nan cycles
ITLB RQ	ACCESS:    4798788	FORWARD:          0	MERGED:     351714	TO_CACHE:    4447074

DTLB TOTAL     ACCESS:    3721410  HIT:    3058508  MISS:     662902  HIT %:    82.1868  MISS %:    17.8132   MPKI: 26.5161
DTLB LOAD TRANSLATION ACCESS:    3721410  HIT:    3058508  MISS:     662902  HIT %:    82.1868  MISS %:    17.8132   MPKI: 26.5161
DTLB PREFETCH  REQUESTED:          0  ISSUED:          0  USEFUL:          0  USELESS:          0
DTLB USEFUL LOAD PREFETCHES:          0 PREFETCH ISSUED TO LOWER LEVEL:          0  ACCURACY: -nan
DTLB TIMELY PREFETCHES:          0 LATE PREFETCHES: 0 DROPPED PREFETCHES: 0
DTLB PREFETCHES SAME FILL-ORIGIN LEVEL: 0 DIFFERENT FILL-ORIGIN LEVEL: 0
DTLB AVERAGE MISS LATENCY: 53.6779 cycles
DTLB RQ	ACCESS:    4320736	FORWARD:          0	MERGED:     591982	TO_CACHE:    3728754

STLB TOTAL     ACCESS:     748515  HIT:     138858  MISS:     609657  HIT %:    18.5511  MISS %:    81.4489   MPKI: 24.3863
STLB LOAD TRANSLATION ACCESS:     662902  HIT:     117321  MISS:     545581  HIT %:    17.6981  MISS %:    82.3019   MPKI: 21.8232
STLB PREFETCH TRANSLATION ACCESS:      85613  HIT:      21537  MISS:      64076  HIT %:    25.1562  MISS %:    74.8438   MPKI: 2.56304
STLB PREFETCH  REQUESTED:     102663  ISSUED:     102663  USEFUL:      16662  USELESS:      47502
STLB USEFUL LOAD PREFETCHES:      16662 PREFETCH ISSUED TO LOWER LEVEL:      72617  ACCURACY: 22.945
STLB TIMELY PREFETCHES:      16662 LATE PREFETCHES: 5854 DROPPED PREFETCHES: 2686
STLB PREFETCHES SAME FILL-ORIGIN LEVEL: 72617 DIFFERENT FILL-ORIGIN LEVEL: 0
STLB AVERAGE MISS LATENCY: 58.5324 cycles
STLB RQ	ACCESS:     662903	FORWARD:          0	MERGED:          0	TO_CACHE:     662903
STLB PQ	ACCESS:     102663	FORWARD:          0	MERGED:          0	TO_CACHE:     102663

STLB Hit, L1D data hit: 0
STLB Hit, L2C data hit: 0
STLB Hit, LLC data hit: 0
STLB Hit, LLC data miss: 0
STLB STLB hints to L2: 0
L1D TOTAL     ACCESS:    4298890  HIT:    3093649  MISS:    1205241  HIT %:    71.9639  MISS %:    28.0361   MPKI: 48.2096
L1D LOAD      ACCESS:    3190225  HIT:    2054348  MISS:    1135877  HIT %:    64.3951  MISS %:    35.6049   MPKI: 45.4351
L1D RFO       ACCESS:    1108665  HIT:    1039301  MISS:      69364  HIT %:    93.7435  MISS %:    6.25653   MPKI: 2.77456
L1D PREFETCH  REQUESTED:          0  ISSUED:          0  USEFUL:          0  USELESS:          0
L1D USEFUL LOAD PREFETCHES:          0 PREFETCH ISSUED TO LOWER LEVEL:          0  ACCURACY: -nan
L1D TIMELY PREFETCHES:          0 LATE PREFETCHES: 0 DROPPED PREFETCHES: 0
L1D PREFETCHES SAME FILL-ORIGIN LEVEL: 0 DIFFERENT FILL-ORIGIN LEVEL: 0
L1D AVERAGE MISS LATENCY: 124.611 cycles
L1D RQ	ACCESS:    6159242	FORWARD:          0	MERGED:    2884939	TO_CACHE:    3212069
L1D WQ	ACCESS:    1108674	FORWARD:      62234	MERGED:          7	TO_CACHE:    1108667

L1D UNIQUE REGIONS ACCESSED: 0
L1D REGIONS CONFLICTS: 0
L1D Cross Page Prefetch Requests: 0
L1D Same Page Prefetch Requests: 0
L1D ROI Sum of L1D PQ occupancy: 0
L1D PREFETCHES PUSHED FROM L2C: 0
L1I TOTAL     ACCESS:    4798788  HIT:    4798788  MISS:          0  HIT %:        100  MISS %:          0   MPKI: 0
L1I LOAD      ACCESS:    4798788  HIT:    4798788  MISS:          0  HIT %:        100  MISS %:          0   MPKI: 0
L1I PREFETCH  REQUESTED:          0  ISSUED:          0  USEFUL:          0  USELESS:          0
L1I USEFUL LOAD PREFETCHES:          0 PREFETCH ISSUED TO LOWER LEVEL:          0  ACCURACY: -nan
L1I TIMELY PREFETCHES:          0 LATE PREFETCHES: 0 DROPPED PREFETCHES: 0
L1I PREFETCHES SAME FILL-ORIGIN LEVEL: 0 DIFFERENT FILL-ORIGIN LEVEL: 0
L1I AVERAGE MISS LATENCY: -nan cycles
L1I RQ	ACCESS:    7121817	FORWARD:          0	MERGED:    2323029	TO_CACHE:    4798788

BTB TOTAL     ACCESS:    3283963  HIT:    3283955  MISS:          8  HIT %:    99.9998  MISS %: 0.000243608   MPKI: 0.00032
BTB BRANCH_DIRECT_JUMP	ACCESS:     568310  HIT:     568308  MISS:          2
BTB BRANCH_INDIRECT	ACCESS:          0  HIT:          0  MISS:          0
BTB BRANCH_CONDITIONAL	ACCESS:    1606985  HIT:    1606981  MISS:          4
BTB BRANCH_DIRECT_CALL	ACCESS:     554334  HIT:     554333  MISS:          1
BTB BRANCH_INDIRECT_CALL	ACCESS:          0  HIT:          0  MISS:          0
BTB BRANCH_RETURN	ACCESS:     554334  HIT:     554333  MISS:          1
BTB BRANCH_OTHER ACCESS:          0  HIT:          0  MISS:          0

L2C TOTAL     ACCESS:    2449950  HIT:    1428332  MISS:    1021618  HIT %:    58.3005  MISS %:    41.6995   MPKI: 40.8647
L2C LOAD      ACCESS:    1135877  HIT:     419013  MISS:     716864  HIT %:    36.8889  MISS %:    63.1111   MPKI: 28.6746
L2C DATA LOAD MPKI: 28.6746
L2C INSTRUCTION LOAD MPKI: 0
L2C RFO       ACCESS:      69364  HIT:      42445  MISS:      26919  HIT %:    61.1917  MISS %:    38.8083   MPKI: 1.07676
L2C WRITEBACK ACCESS:     554349  HIT:     554349  MISS:          0  HIT %:        100  MISS %:          0   MPKI: 0
L2C LOAD TRANSLATION ACCESS:     609281  HIT:     356860  MISS:     252421  HIT %:    58.5707  MISS %:    41.4293   MPKI: 10.0968
L2C PREFETCH TRANSLATION ACCESS:      81079  HIT:      55665  MISS:      25414  HIT %:    68.6553  MISS %:    31.3447   MPKI: 1.01656
L2C PREFETCH  REQUESTED:          0  ISSUED:          0  USEFUL:      15007  USELESS:      10470
L2C USEFUL LOAD PREFETCHES:      15007 PREFETCH ISSUED TO LOWER LEVEL:          0  ACCURACY: inf
L2C TIMELY PREFETCHES:      15007 LATE PREFETCHES: 0 DROPPED PREFETCHES: 0
L2C PREFETCHES SAME FILL-ORIGIN LEVEL: 0 DIFFERENT FILL-ORIGIN LEVEL: 0
L2C AVERAGE MISS LATENCY: 138.496 cycles
L2C RQ	ACCESS:    1895604	FORWARD:          0	MERGED:          0	TO_CACHE:    1895604
L2C WQ	ACCESS:     554349	FORWARD:          0	MERGED:          0	TO_CACHE:     554349

L2C Instructions Evicting Data 0
L2C Translations Evicting Data 155399
L2C Data Evicting Data 588289
L2C Instructions Evicting Instructions 0
L2C Translations Evicting Instructions 0
L2C Data Evicting Instructions 0
L2C Instructions Evicting Translations 0
L2C Translations Evicting Translations 122436
L2C Data Evicting Translations 155494
L2C Dense regions hint from L2: 0
PSCL5 TOTAL     ACCESS:     612345  HIT:     612345  MISS:          0  HIT %:        100  MISS %:          0   MPKI: 0
PSCL5 LOAD TRANSLATION ACCESS:     539728  HIT:     539728  MISS:          0  HIT %:        100  MISS %:          0   MPKI: 0
PSCL5 PREFETCH TRANSLATION ACCESS:      72617  HIT:      72617  MISS:          0  HIT %:        100  MISS %:          0   MPKI: 0
PSCL5 PREFETCH  REQUESTED:          0  ISSUED:          0  USEFUL:          0  USELESS:          0
PSCL5 USEFUL LOAD PREFETCHES:          0 PREFETCH ISSUED TO LOWER LEVEL:          0  ACCURACY: -nan
PSCL5 TIMELY PREFETCHES:          0 LATE PREFETCHES: 0 DROPPED PREFETCHES: 0
PSCL5 PREFETCHES SAME FILL-ORIGIN LEVEL: 0 DIFFERENT FILL-ORIGIN LEVEL: 0

PSCL4 TOTAL     ACCESS:     612345  HIT:     612345  MISS:          0  HIT %:        100  MISS %:          0   MPKI: 0
PSCL4 LOAD TRANSLATION ACCESS:     539728  HIT:     539728  MISS:          0  HIT %:        100  MISS %:          0   MPKI: 0
PSCL4 PREFETCH TRANSLATION ACCESS:      72617  HIT:      72617  MISS:          0  HIT %:        100  MISS %:          0   MPKI: 0
PSCL4 PREFETCH  REQUESTED:          0  ISSUED:          0  USEFUL:          0  USELESS:          0
PSCL4 USEFUL LOAD PREFETCHES:          0 PREFETCH ISSUED TO LOWER LEVEL:          0  ACCURACY: -nan
PSCL4 TIMELY PREFETCHES:          0 LATE PREFETCHES: 0 DROPPED PREFETCHES: 0
PSCL4 PREFETCHES SAME FILL-ORIGIN LEVEL: 0 DIFFERENT FILL-ORIGIN LEVEL: 0

PSCL3 TOTAL     ACCESS:     612345  HIT:     612345  MISS:          0  HIT %:        100  MISS %:          0   MPKI: 0
PSCL3 LOAD TRANSLATION ACCESS:     539728  HIT:     539728  MISS:          0  HIT %:        100  MISS %:          0   MPKI: 0
PSCL3 PREFETCH TRANSLATION ACCESS:      72617  HIT:      72617  MISS:          0  HIT %:        100  MISS %:          0   MPKI: 0
PSCL3 PREFETCH  REQUESTED:          0  ISSUED:          0  USEFUL:          0  USELESS:          0
PSCL3 USEFUL LOAD PREFETCHES:          0 PREFETCH ISSUED TO LOWER LEVEL:          0  ACCURACY: -nan
PSCL3 TIMELY PREFETCHES:          0 LATE PREFETCHES: 0 DROPPED PREFETCHES: 0
PSCL3 PREFETCHES SAME FILL-ORIGIN LEVEL: 0 DIFFERENT FILL-ORIGIN LEVEL: 0

PSCL2 TOTAL     ACCESS:     611422  HIT:     534229  MISS:      77193  HIT %:    87.3748  MISS %:    12.6252   MPKI: 3.08772
PSCL2 LOAD TRANSLATION ACCESS:     547368  HIT:     470175  MISS:      77193  HIT %:    85.8974  MISS %:    14.1026   MPKI: 3.08772
PSCL2 PREFETCH TRANSLATION ACCESS:      64054  HIT:      64054  MISS:          0  HIT %:        100  MISS %:          0   MPKI: 0
PSCL2 PREFETCH  REQUESTED:          0  ISSUED:          0  USEFUL:          0  USELESS:          0
PSCL2 USEFUL LOAD PREFETCHES:          0 PREFETCH ISSUED TO LOWER LEVEL:          0  ACCURACY: -nan
PSCL2 TIMELY PREFETCHES:          0 LATE PREFETCHES: 0 DROPPED PREFETCHES: 0
PSCL2 PREFETCHES SAME FILL-ORIGIN LEVEL: 0 DIFFERENT FILL-ORIGIN LEVEL: 0

LLC TOTAL     ACCESS:    1576374  HIT:     926825  MISS:     649549  HIT %:    58.7947  MISS %:    41.2053   MPKI: 25.982
LLC LOAD      ACCESS:     716864  HIT:      75409  MISS:     641455  HIT %:    10.5193  MISS %:    89.4807   MPKI: 25.6582
LLC RFO       ACCESS:      26919  HIT:      26915  MISS:          4  HIT %:    99.9851  MISS %:  0.0148594   MPKI: 0.00016
LLC WRITEBACK ACCESS:     554756  HIT:     554756  MISS:          0  HIT %:        100  MISS %:          0   MPKI: 0
LLC LOAD TRANSLATION ACCESS:     252421  HIT:     245574  MISS:       6847  HIT %:    97.2875  MISS %:    2.71253   MPKI: 0.27388
LLC PREFETCH TRANSLATION ACCESS:      25414  HIT:      24171  MISS:       1243  HIT %:     95.109  MISS %:      4.891   MPKI: 0.04972
LLC PREFETCH  REQUESTED:          0  ISSUED:          0  USEFUL:        772  USELESS:        489
LLC USEFUL LOAD PREFETCHES:        772 PREFETCH ISSUED TO LOWER LEVEL:          0  ACCURACY: inf
LLC TIMELY PREFETCHES:        772 LATE PREFETCHES: 0 DROPPED PREFETCHES: 0
LLC PREFETCHES SAME FILL-ORIGIN LEVEL: 0 DIFFERENT FILL-ORIGIN LEVEL: 0
LLC AVERAGE MISS LATENCY: 170.441 cycles
LLC RQ	ACCESS:    1021620	FORWARD:          0	MERGED:          0	TO_CACHE:    1021620
LLC WQ	ACCESS:     554756	FORWARD:          0	MERGED:          0	TO_CACHE:     554756

LLC Dense regions hint to LLC: 0

RAW hits: 491289
Loads Generated: 6650534
Loads sent to L1D: 6159242
Stores Generated: 1108670
Stores sent to L1D: 1108674
Major fault: 0 Minor fault: 23116
Allocated PAGES: 23116
CPU 0 STLB arbitrary stride prefetcher final stats
Degree: 1

DRAM Statistics
 CHANNEL 0
 RQ ROW_BUFFER_HIT:        735  ROW_BUFFER_MISS:     648814
 DBUS_CONGESTED:          4
 WQ ROW_BUFFER_HIT:     205830  ROW_BUFFER_MISS:     348511  FULL:          0

 AVG_CONGESTED_CYCLE: 6
 All warmup complete: 2
Channel 0 Bank busy for read cycles: 0
Channel 0 Bank busy for write cycles: 0
Channel 0
Rank 0
0banks busy for read cycles: 2823324
0banks busy for write cycles: 63586
1banks busy for read cycles: 21386731
1banks busy for write cycles: 4933579
2banks busy for read cycles: 14420280
2banks busy for write cycles: 7008711
3banks busy for read cycles: 11156532
3banks busy for write cycles: 10094602
4banks busy for read cycles: 3388464
4banks busy for write cycles: 8245606
5banks busy for read cycles: 21650
5banks busy for write cycles: 3080126
6banks busy for read cycles: 0
6banks busy for write cycles: 1217991
7banks busy for read cycles: 0
7banks busy for write cycles: 587083
8banks busy for read cycles: 0
8banks busy for write cycles: 477843

CPU 0 Branch Prediction Accuracy: 99.9685% MPKI: 0.04912 Average ROB Occupancy at Mispredict: 156.671
Branch types
NOT_BRANCH: 21105636 84.4225%
BRANCH_DIRECT_JUMP: 568310 2.27324%
BRANCH_INDIRECT: 0 0%
BRANCH_CONDITIONAL: 2217336 8.86934%
BRANCH_DIRECT_CALL: 554334 2.21734%
BRANCH_INDIRECT_CALL: 0 0%
BRANCH_RETURN: 554334 2.21734%
BRANCH_OTHER: 0 0%

DRAM PAGES: 1048576
Allocated PAGES: 23116
