
*** ChampSim Multicore Out-of-Order Simulator ***

Warmup Instructions: 25000000
Simulation Instructions: 25000000
Number of CPUs: 1
LLC sets: 2048
LLC ways: 16
Off-chip DRAM Size: 4096 MB Channels: 1 Width: 64-bit Data Rate: 6400 MT/s
CPU 0 runs ../traces/trace3.champsimtrace.xz
.xz
CPU 0 Bimodal branch predictor
BTB has LRU replacement policy
ITLB has LRU replacement policy
DTLB has LRU replacement policy
STLB has LRU replacement policy
L1I has LRU replacement policy
L1D has LRU replacement policy
L2C has LRU replacement policy
LLC has LRU replacement policy
Heartbeat CPU 0 instructions: 10000001 cycles: 3773791 heartbeat IPC: 2.64986 cumulative IPC: 2.64986 (Simulation time: 0 hr 0 min 22 sec) 
Heartbeat CPU 0 instructions: 20000000 cycles: 7519439 heartbeat IPC: 2.66976 cumulative IPC: 2.65977 (Simulation time: 0 hr 0 min 39 sec) 

Warmup complete CPU 0 instructions: 25000004 cycles: 9423064 (Simulation time: 0 hr 0 min 47 sec) 

Heartbeat CPU 0 instructions: 30000001 cycles: 44520168 heartbeat IPC: 0.270265 cumulative IPC: 0.142462 (Simulation time: 0 hr 1 min 4 sec) 
Heartbeat CPU 0 instructions: 40000001 cycles: 114536407 heartbeat IPC: 0.142824 cumulative IPC: 0.142703 (Simulation time: 0 hr 1 min 39 sec) 
Heartbeat CPU 0 instructions: 50000000 cycles: 187748600 heartbeat IPC: 0.136589 cumulative IPC: 0.140193 (Simulation time: 0 hr 2 min 14 sec) 
Finished CPU 0 instructions: 25000000 cycles: 178325538 cumulative IPC: 0.140193 (Simulation time: 0 hr 2 min 14 sec) 

ChampSim completed all CPUs

Region of Interest Statistics

CPU 0 cumulative IPC: 0.140193 instructions: 25000000 cycles: 178325538
ITLB TOTAL     ACCESS:    4069773  HIT:    4069773  MISS:          0  HIT %:        100  MISS %:          0   MPKI: 0
ITLB LOAD TRANSLATION ACCESS:    4069773  HIT:    4069773  MISS:          0  HIT %:        100  MISS %:          0   MPKI: 0
ITLB PREFETCH  REQUESTED:          0  ISSUED:          0  USEFUL:          0  USELESS:          0
ITLB USEFUL LOAD PREFETCHES:          0 PREFETCH ISSUED TO LOWER LEVEL:          0  ACCURACY: -nan
ITLB TIMELY PREFETCHES:          0 LATE PREFETCHES: 0 DROPPED PREFETCHES: 0
ITLB PREFETCHES SAME FILL-ORIGIN LEVEL: 0 DIFFERENT FILL-ORIGIN LEVEL: 0
ITLB AVERAGE MISS LATENCY: -nan cycles
ITLB RQ	ACCESS:    4120977	FORWARD:          0	MERGED:      51205	TO_CACHE:    4069772

DTLB TOTAL     ACCESS:    5251425  HIT:    3047248  MISS:    2204177  HIT %:    58.0271  MISS %:    41.9729   MPKI: 88.1671
DTLB LOAD TRANSLATION ACCESS:    5251425  HIT:    3047248  MISS:    2204177  HIT %:    58.0271  MISS %:    41.9729   MPKI: 88.1671
DTLB PREFETCH  REQUESTED:          0  ISSUED:          0  USEFUL:          0  USELESS:          0
DTLB USEFUL LOAD PREFETCHES:          0 PREFETCH ISSUED TO LOWER LEVEL:          0  ACCURACY: -nan
DTLB TIMELY PREFETCHES:          0 LATE PREFETCHES: 0 DROPPED PREFETCHES: 0
DTLB PREFETCHES SAME FILL-ORIGIN LEVEL: 0 DIFFERENT FILL-ORIGIN LEVEL: 0
DTLB AVERAGE MISS LATENCY: 10.85 cycles
DTLB RQ	ACCESS:    5782731	FORWARD:          0	MERGED:     496508	TO_CACHE:    5286223

STLB TOTAL     ACCESS:    2204177  HIT:    2175133  MISS:      29044  HIT %:    98.6823  MISS %:    1.31768   MPKI: 1.16176
STLB LOAD TRANSLATION ACCESS:    2204177  HIT:    2175133  MISS:      29044  HIT %:    98.6823  MISS %:    1.31768   MPKI: 1.16176
STLB PREFETCH  REQUESTED:          0  ISSUED:          0  USEFUL:          0  USELESS:          0
STLB USEFUL LOAD PREFETCHES:          0 PREFETCH ISSUED TO LOWER LEVEL:          0  ACCURACY: -nan
STLB TIMELY PREFETCHES:          0 LATE PREFETCHES: 0 DROPPED PREFETCHES: 0
STLB PREFETCHES SAME FILL-ORIGIN LEVEL: 0 DIFFERENT FILL-ORIGIN LEVEL: 0
STLB AVERAGE MISS LATENCY: 134.084 cycles
STLB RQ	ACCESS:    2204177	FORWARD:          0	MERGED:          0	TO_CACHE:    2204177

STLB Hit, L1D data hit: 0
STLB Hit, L2C data hit: 0
STLB Hit, LLC data hit: 0
STLB Hit, LLC data miss: 0
STLB STLB hints to L2: 0
L1D TOTAL     ACCESS:    5560787  HIT:    1678816  MISS:    3881971  HIT %:    30.1903  MISS %:    69.8097   MPKI: 155.279
L1D LOAD      ACCESS:    5136629  HIT:    1262561  MISS:    3874068  HIT %:    24.5796  MISS %:    75.4204   MPKI: 154.963
L1D RFO       ACCESS:     424158  HIT:     416255  MISS:       7903  HIT %:    98.1368  MISS %:    1.86322   MPKI: 0.31612
L1D PREFETCH  REQUESTED:          0  ISSUED:          0  USEFUL:          0  USELESS:          0
L1D USEFUL LOAD PREFETCHES:          0 PREFETCH ISSUED TO LOWER LEVEL:          0  ACCURACY: -nan
L1D TIMELY PREFETCHES:          0 LATE PREFETCHES: 0 DROPPED PREFETCHES: 0
L1D PREFETCHES SAME FILL-ORIGIN LEVEL: 0 DIFFERENT FILL-ORIGIN LEVEL: 0
L1D AVERAGE MISS LATENCY: 109.461 cycles
L1D RQ	ACCESS:    8951660	FORWARD:          0	MERGED:    3547140	TO_CACHE:    5339612
L1D WQ	ACCESS:     459661	FORWARD:      64908	MERGED:      16542	TO_CACHE:     443119

L1D UNIQUE REGIONS ACCESSED: 0
L1D REGIONS CONFLICTS: 0
L1D Cross Page Prefetch Requests: 0
L1D Same Page Prefetch Requests: 0
L1D ROI Sum of L1D PQ occupancy: 0
L1D PREFETCHES PUSHED FROM L2C: 0
L1I TOTAL     ACCESS:    4120978  HIT:    4120978  MISS:          0  HIT %:        100  MISS %:          0   MPKI: 0
L1I LOAD      ACCESS:    4120978  HIT:    4120978  MISS:          0  HIT %:        100  MISS %:          0   MPKI: 0
L1I PREFETCH  REQUESTED:          0  ISSUED:          0  USEFUL:          0  USELESS:          0
L1I USEFUL LOAD PREFETCHES:          0 PREFETCH ISSUED TO LOWER LEVEL:          0  ACCURACY: -nan
L1I TIMELY PREFETCHES:          0 LATE PREFETCHES: 0 DROPPED PREFETCHES: 0
L1I PREFETCHES SAME FILL-ORIGIN LEVEL: 0 DIFFERENT FILL-ORIGIN LEVEL: 0
L1I AVERAGE MISS LATENCY: -nan cycles
L1I RQ	ACCESS:    5531893	FORWARD:          0	MERGED:    1410916	TO_CACHE:    4120977

BTB TOTAL     ACCESS:    7381233  HIT:    7359090  MISS:      22143  HIT %:       99.7  MISS %:   0.299991   MPKI: 0.88572
BTB BRANCH_DIRECT_JUMP	ACCESS:     954613  HIT:     954578  MISS:         35
BTB BRANCH_INDIRECT	ACCESS:          0  HIT:          0  MISS:          0
BTB BRANCH_CONDITIONAL	ACCESS:    6254608  HIT:    6254529  MISS:         79
BTB BRANCH_DIRECT_CALL	ACCESS:      79755  HIT:      79739  MISS:         16
BTB BRANCH_INDIRECT_CALL	ACCESS:       6250  HIT:       6242  MISS:          8
BTB BRANCH_RETURN	ACCESS:      86007  HIT:      64002  MISS:      22005
BTB BRANCH_OTHER ACCESS:          0  HIT:          0  MISS:          0

L2C TOTAL     ACCESS:    3990928  HIT:     510448  MISS:    3480480  HIT %:    12.7902  MISS %:    87.2098   MPKI: 139.219
L2C LOAD      ACCESS:    3874063  HIT:     409785  MISS:    3464278  HIT %:    10.5777  MISS %:    89.4223   MPKI: 138.571
L2C DATA LOAD MPKI: 138.571
L2C INSTRUCTION LOAD MPKI: 0
L2C RFO       ACCESS:       7903  HIT:        803  MISS:       7100  HIT %:    10.1607  MISS %:    89.8393   MPKI: 0.284
L2C WRITEBACK ACCESS:      79744  HIT:      79744  MISS:          0  HIT %:        100  MISS %:          0   MPKI: 0
L2C LOAD TRANSLATION ACCESS:      29218  HIT:      20116  MISS:       9102  HIT %:     68.848  MISS %:     31.152   MPKI: 0.36408
L2C PREFETCH  REQUESTED:          0  ISSUED:          0  USEFUL:          0  USELESS:          0
L2C USEFUL LOAD PREFETCHES:          0 PREFETCH ISSUED TO LOWER LEVEL:          0  ACCURACY: -nan
L2C TIMELY PREFETCHES:          0 LATE PREFETCHES: 0 DROPPED PREFETCHES: 0
L2C PREFETCHES SAME FILL-ORIGIN LEVEL: 0 DIFFERENT FILL-ORIGIN LEVEL: 0
L2C AVERAGE MISS LATENCY: 105.545 cycles
L2C RQ	ACCESS:    3911189	FORWARD:          0	MERGED:          0	TO_CACHE:    3911184
L2C WQ	ACCESS:      79744	FORWARD:          5	MERGED:          0	TO_CACHE:      79744

L2C Instructions Evicting Data 0
L2C Translations Evicting Data 9076
L2C Data Evicting Data 3462323
L2C Instructions Evicting Instructions 0
L2C Translations Evicting Instructions 0
L2C Data Evicting Instructions 0
L2C Instructions Evicting Translations 0
L2C Translations Evicting Translations 26
L2C Data Evicting Translations 9055
L2C Dense regions hint from L2: 0
PSCL5 TOTAL     ACCESS:      29044  HIT:      29044  MISS:          0  HIT %:        100  MISS %:          0   MPKI: 0
PSCL5 LOAD TRANSLATION ACCESS:      29044  HIT:      29044  MISS:          0  HIT %:        100  MISS %:          0   MPKI: 0
PSCL5 PREFETCH  REQUESTED:          0  ISSUED:          0  USEFUL:          0  USELESS:          0
PSCL5 USEFUL LOAD PREFETCHES:          0 PREFETCH ISSUED TO LOWER LEVEL:          0  ACCURACY: -nan
PSCL5 TIMELY PREFETCHES:          0 LATE PREFETCHES: 0 DROPPED PREFETCHES: 0
PSCL5 PREFETCHES SAME FILL-ORIGIN LEVEL: 0 DIFFERENT FILL-ORIGIN LEVEL: 0

PSCL4 TOTAL     ACCESS:      29044  HIT:      29044  MISS:          0  HIT %:        100  MISS %:          0   MPKI: 0
PSCL4 LOAD TRANSLATION ACCESS:      29044  HIT:      29044  MISS:          0  HIT %:        100  MISS %:          0   MPKI: 0
PSCL4 PREFETCH  REQUESTED:          0  ISSUED:          0  USEFUL:          0  USELESS:          0
PSCL4 USEFUL LOAD PREFETCHES:          0 PREFETCH ISSUED TO LOWER LEVEL:          0  ACCURACY: -nan
PSCL4 TIMELY PREFETCHES:          0 LATE PREFETCHES: 0 DROPPED PREFETCHES: 0
PSCL4 PREFETCHES SAME FILL-ORIGIN LEVEL: 0 DIFFERENT FILL-ORIGIN LEVEL: 0

PSCL3 TOTAL     ACCESS:      29044  HIT:      29044  MISS:          0  HIT %:        100  MISS %:          0   MPKI: 0
PSCL3 LOAD TRANSLATION ACCESS:      29044  HIT:      29044  MISS:          0  HIT %:        100  MISS %:          0   MPKI: 0
PSCL3 PREFETCH  REQUESTED:          0  ISSUED:          0  USEFUL:          0  USELESS:          0
PSCL3 USEFUL LOAD PREFETCHES:          0 PREFETCH ISSUED TO LOWER LEVEL:          0  ACCURACY: -nan
PSCL3 TIMELY PREFETCHES:          0 LATE PREFETCHES: 0 DROPPED PREFETCHES: 0
PSCL3 PREFETCHES SAME FILL-ORIGIN LEVEL: 0 DIFFERENT FILL-ORIGIN LEVEL: 0

PSCL2 TOTAL     ACCESS:      29044  HIT:      28734  MISS:        310  HIT %:    98.9327  MISS %:    1.06735   MPKI: 0.0124
PSCL2 LOAD TRANSLATION ACCESS:      29044  HIT:      28734  MISS:        310  HIT %:    98.9327  MISS %:    1.06735   MPKI: 0.0124
PSCL2 PREFETCH  REQUESTED:          0  ISSUED:          0  USEFUL:          0  USELESS:          0
PSCL2 USEFUL LOAD PREFETCHES:          0 PREFETCH ISSUED TO LOWER LEVEL:          0  ACCURACY: -nan
PSCL2 TIMELY PREFETCHES:          0 LATE PREFETCHES: 0 DROPPED PREFETCHES: 0
PSCL2 PREFETCHES SAME FILL-ORIGIN LEVEL: 0 DIFFERENT FILL-ORIGIN LEVEL: 0

LLC TOTAL     ACCESS:    3555899  HIT:    1561100  MISS:    1994799  HIT %:    43.9017  MISS %:    56.0983   MPKI: 79.792
LLC LOAD      ACCESS:    3464278  HIT:    1475883  MISS:    1988395  HIT %:    42.6029  MISS %:    57.3971   MPKI: 79.5358
LLC RFO       ACCESS:       7100  HIT:       5964  MISS:       1136  HIT %:         84  MISS %:         16   MPKI: 0.04544
LLC WRITEBACK ACCESS:      75419  HIT:      75278  MISS:        141  HIT %:     99.813  MISS %:   0.186956   MPKI: 0.00564
LLC LOAD TRANSLATION ACCESS:       9102  HIT:       3975  MISS:       5127  HIT %:    43.6717  MISS %:    56.3283   MPKI: 0.20508
LLC PREFETCH  REQUESTED:          0  ISSUED:          0  USEFUL:          0  USELESS:          0
LLC USEFUL LOAD PREFETCHES:          0 PREFETCH ISSUED TO LOWER LEVEL:          0  ACCURACY: -nan
LLC TIMELY PREFETCHES:          0 LATE PREFETCHES: 0 DROPPED PREFETCHES: 0
LLC PREFETCHES SAME FILL-ORIGIN LEVEL: 0 DIFFERENT FILL-ORIGIN LEVEL: 0
LLC AVERAGE MISS LATENCY: 131.073 cycles
LLC RQ	ACCESS:    3480480	FORWARD:          0	MERGED:          0	TO_CACHE:    3480480
LLC WQ	ACCESS:      75419	FORWARD:          0	MERGED:          0	TO_CACHE:      75419

LLC Dense regions hint to LLC: 0

RAW hits: 62667
Loads Generated: 9014327
Loads sent to L1D: 8951660
Stores Generated: 459660
Stores sent to L1D: 459661
Major fault: 0 Minor fault: 44120
Allocated PAGES: 44120

DRAM Statistics
 CHANNEL 0
 RQ ROW_BUFFER_HIT:     924132  ROW_BUFFER_MISS:    1070509
 DBUS_CONGESTED:        323
 WQ ROW_BUFFER_HIT:      11976  ROW_BUFFER_MISS:      27780  FULL:          0

 AVG_CONGESTED_CYCLE: 4
 All warmup complete: 2
Channel 0 Bank busy for read cycles: 0
Channel 0 Bank busy for write cycles: 0
Channel 0
Rank 0
0banks busy for read cycles: 67133602
0banks busy for write cycles: 16324
1banks busy for read cycles: 54623083
1banks busy for write cycles: 3183275
2banks busy for read cycles: 25914997
2banks busy for write cycles: 658374
3banks busy for read cycles: 13652839
3banks busy for write cycles: 279356
4banks busy for read cycles: 6658880
4banks busy for write cycles: 162946
5banks busy for read cycles: 2795631
5banks busy for write cycles: 125320
6banks busy for read cycles: 1146136
6banks busy for write cycles: 112690
7banks busy for read cycles: 622676
7banks busy for write cycles: 123899
8banks busy for read cycles: 941666
8banks busy for write cycles: 173845

CPU 0 Branch Prediction Accuracy: 96.3142% MPKI: 11.2642 Average ROB Occupancy at Mispredict: 49.3772
Branch types
NOT_BRANCH: 17359361 69.4374%
BRANCH_DIRECT_JUMP: 954613 3.81845%
BRANCH_INDIRECT: 0 0%
BRANCH_CONDITIONAL: 6513665 26.0547%
BRANCH_DIRECT_CALL: 79755 0.31902%
BRANCH_INDIRECT_CALL: 6250 0.025%
BRANCH_RETURN: 86007 0.344028%
BRANCH_OTHER: 0 0%

DRAM PAGES: 1048576
Allocated PAGES: 44120
