
*** ChampSim Multicore Out-of-Order Simulator ***

Warmup Instructions: 25000000
Simulation Instructions: 25000000
Number of CPUs: 1
LLC sets: 2048
LLC ways: 16
Off-chip DRAM Size: 4096 MB Channels: 1 Width: 64-bit Data Rate: 6400 MT/s
CPU 0 runs ../traces/trace1.champsimtrace.xz
.xz
CPU 0 Bimodal branch predictor
BTB has LRU replacement policy
ITLB has LRU replacement policy
DTLB has LRU replacement policy
CPU 0 STLB arbitrary stride prefetcher
STLB has LRU replacement policy
L1I has LRU replacement policy
L1D has LRU replacement policy
L2C has LRU replacement policy
LLC has LRU replacement policy
Heartbeat CPU 0 instructions: 10000003 cycles: 2822276 heartbeat IPC: 3.54324 cumulative IPC: 3.54324 (Simulation time: 0 hr 0 min 15 sec) 
Heartbeat CPU 0 instructions: 20000003 cycles: 5632638 heartbeat IPC: 3.55826 cumulative IPC: 3.55073 (Simulation time: 0 hr 0 min 29 sec) 

Warmup complete CPU 0 instructions: 25000004 cycles: 7043388 (Simulation time: 0 hr 0 min 36 sec) 

Heartbeat CPU 0 instructions: 30000002 cycles: 23200604 heartbeat IPC: 0.569218 cumulative IPC: 0.309459 (Simulation time: 0 hr 0 min 53 sec) 
Heartbeat CPU 0 instructions: 40000001 cycles: 57617208 heartbeat IPC: 0.290557 cumulative IPC: 0.296596 (Simulation time: 0 hr 1 min 26 sec) 
Heartbeat CPU 0 instructions: 50000003 cycles: 90826848 heartbeat IPC: 0.301117 cumulative IPC: 0.298388 (Simulation time: 0 hr 1 min 59 sec) 
Finished CPU 0 instructions: 25000003 cycles: 83783461 cumulative IPC: 0.298388 (Simulation time: 0 hr 1 min 59 sec) 

ChampSim completed all CPUs

Region of Interest Statistics

CPU 0 cumulative IPC: 0.298388 instructions: 25000003 cycles: 83783461
ITLB TOTAL     ACCESS:    4419550  HIT:    4419550  MISS:          0  HIT %:        100  MISS %:          0   MPKI: 0
ITLB LOAD TRANSLATION ACCESS:    4419550  HIT:    4419550  MISS:          0  HIT %:        100  MISS %:          0   MPKI: 0
ITLB PREFETCH  REQUESTED:          0  ISSUED:          0  USEFUL:          0  USELESS:          0
ITLB USEFUL LOAD PREFETCHES:          0 PREFETCH ISSUED TO LOWER LEVEL:          0  ACCURACY: -nan
ITLB TIMELY PREFETCHES:          0 LATE PREFETCHES: 0 DROPPED PREFETCHES: 0
ITLB PREFETCHES SAME FILL-ORIGIN LEVEL: 0 DIFFERENT FILL-ORIGIN LEVEL: 0
ITLB AVERAGE MISS LATENCY: -nan cycles
ITLB RQ	ACCESS:    4777125	FORWARD:          0	MERGED:     357576	TO_CACHE:    4419549

DTLB TOTAL     ACCESS:    3703602  HIT:    3040644  MISS:     662958  HIT %:    82.0996  MISS %:    17.9004   MPKI: 26.5183
DTLB LOAD TRANSLATION ACCESS:    3703602  HIT:    3040644  MISS:     662958  HIT %:    82.0996  MISS %:    17.9004   MPKI: 26.5183
DTLB PREFETCH  REQUESTED:          0  ISSUED:          0  USEFUL:          0  USELESS:          0
DTLB USEFUL LOAD PREFETCHES:          0 PREFETCH ISSUED TO LOWER LEVEL:          0  ACCURACY: -nan
DTLB TIMELY PREFETCHES:          0 LATE PREFETCHES: 0 DROPPED PREFETCHES: 0
DTLB PREFETCHES SAME FILL-ORIGIN LEVEL: 0 DIFFERENT FILL-ORIGIN LEVEL: 0
DTLB AVERAGE MISS LATENCY: 42.048 cycles
DTLB RQ	ACCESS:    4303936	FORWARD:          0	MERGED:     590365	TO_CACHE:    3713571

STLB TOTAL     ACCESS:    1405923  HIT:     253574  MISS:    1152349  HIT %:    18.0361  MISS %:    81.9639   MPKI: 46.094
STLB LOAD TRANSLATION ACCESS:     662958  HIT:     120745  MISS:     542213  HIT %:    18.2131  MISS %:    81.7869   MPKI: 21.6885
STLB PREFETCH TRANSLATION ACCESS:     742965  HIT:     132829  MISS:     610136  HIT %:    17.8782  MISS %:    82.1218   MPKI: 24.4054
STLB PREFETCH  REQUESTED:     790482  ISSUED:     788011  USEFUL:      29112  USELESS:     581233
STLB USEFUL LOAD PREFETCHES:      29112 PREFETCH ISSUED TO LOWER LEVEL:     645753  ACCURACY: 4.50823
STLB TIMELY PREFETCHES:      29112 LATE PREFETCHES: 7205 DROPPED PREFETCHES: 28415
STLB PREFETCHES SAME FILL-ORIGIN LEVEL: 645753 DIFFERENT FILL-ORIGIN LEVEL: 0
STLB AVERAGE MISS LATENCY: 98.2684 cycles
STLB RQ	ACCESS:     662959	FORWARD:          0	MERGED:          0	TO_CACHE:     662959
STLB PQ	ACCESS:     788011	FORWARD:          0	MERGED:        192	TO_CACHE:     787819

STLB Hit, L1D data hit: 0
STLB Hit, L2C data hit: 0
STLB Hit, LLC data hit: 0
STLB Hit, LLC data miss: 0
STLB STLB hints to L2: 0
L1D TOTAL     ACCESS:    4286960  HIT:    3081685  MISS:    1205275  HIT %:    71.8851  MISS %:    28.1149   MPKI: 48.211
L1D LOAD      ACCESS:    3178295  HIT:    2042384  MISS:    1135911  HIT %:    64.2604  MISS %:    35.7396   MPKI: 45.4364
L1D RFO       ACCESS:    1108665  HIT:    1039301  MISS:      69364  HIT %:    93.7435  MISS %:    6.25653   MPKI: 2.77456
L1D PREFETCH  REQUESTED:          0  ISSUED:          0  USEFUL:          0  USELESS:          0
L1D USEFUL LOAD PREFETCHES:          0 PREFETCH ISSUED TO LOWER LEVEL:          0  ACCURACY: -nan
L1D TIMELY PREFETCHES:          0 LATE PREFETCHES: 0 DROPPED PREFETCHES: 0
L1D PREFETCHES SAME FILL-ORIGIN LEVEL: 0 DIFFERENT FILL-ORIGIN LEVEL: 0
L1D AVERAGE MISS LATENCY: 125.049 cycles
L1D RQ	ACCESS:    6166251	FORWARD:          0	MERGED:    2901741	TO_CACHE:    3195269
L1D WQ	ACCESS:    1108674	FORWARD:      69241	MERGED:          7	TO_CACHE:    1108667

L1D UNIQUE REGIONS ACCESSED: 0
L1D REGIONS CONFLICTS: 0
L1D Cross Page Prefetch Requests: 0
L1D Same Page Prefetch Requests: 0
L1D ROI Sum of L1D PQ occupancy: 0
L1D PREFETCHES PUSHED FROM L2C: 0
L1I TOTAL     ACCESS:    4777125  HIT:    4777125  MISS:          0  HIT %:        100  MISS %:          0   MPKI: 0
L1I LOAD      ACCESS:    4777125  HIT:    4777125  MISS:          0  HIT %:        100  MISS %:          0   MPKI: 0
L1I PREFETCH  REQUESTED:          0  ISSUED:          0  USEFUL:          0  USELESS:          0
L1I USEFUL LOAD PREFETCHES:          0 PREFETCH ISSUED TO LOWER LEVEL:          0  ACCURACY: -nan
L1I TIMELY PREFETCHES:          0 LATE PREFETCHES: 0 DROPPED PREFETCHES: 0
L1I PREFETCHES SAME FILL-ORIGIN LEVEL: 0 DIFFERENT FILL-ORIGIN LEVEL: 0
L1I AVERAGE MISS LATENCY: -nan cycles
L1I RQ	ACCESS:    7042007	FORWARD:          0	MERGED:    2264882	TO_CACHE:    4777125

BTB TOTAL     ACCESS:    3283963  HIT:    3283955  MISS:          8  HIT %:    99.9998  MISS %: 0.000243608   MPKI: 0.00032
BTB BRANCH_DIRECT_JUMP	ACCESS:     568310  HIT:     568308  MISS:          2
BTB BRANCH_INDIRECT	ACCESS:          0  HIT:          0  MISS:          0
BTB BRANCH_CONDITIONAL	ACCESS:    1606985  HIT:    1606981  MISS:          4
BTB BRANCH_DIRECT_CALL	ACCESS:     554334  HIT:     554333  MISS:          1
BTB BRANCH_INDIRECT_CALL	ACCESS:          0  HIT:          0  MISS:          0
BTB BRANCH_RETURN	ACCESS:     554334  HIT:     554333  MISS:          1
BTB BRANCH_OTHER ACCESS:          0  HIT:          0  MISS:          0

L2C TOTAL     ACCESS:    3038749  HIT:    1902019  MISS:    1136730  HIT %:    62.5922  MISS %:    37.4078   MPKI: 45.4692
L2C LOAD      ACCESS:    1135911  HIT:     407833  MISS:     728078  HIT %:    35.9036  MISS %:    64.0964   MPKI: 29.1231
L2C DATA LOAD MPKI: 29.1231
L2C INSTRUCTION LOAD MPKI: 0
L2C RFO       ACCESS:      69364  HIT:      37463  MISS:      31901  HIT %:    54.0093  MISS %:    45.9907   MPKI: 1.27604
L2C WRITEBACK ACCESS:     554350  HIT:     554350  MISS:          0  HIT %:        100  MISS %:          0   MPKI: 0
L2C LOAD TRANSLATION ACCESS:     553028  HIT:     439727  MISS:     113301  HIT %:    79.5126  MISS %:    20.4874   MPKI: 4.53204
L2C PREFETCH TRANSLATION ACCESS:     726096  HIT:     462646  MISS:     263450  HIT %:    63.7169  MISS %:    36.2831   MPKI: 10.538
L2C PREFETCH  REQUESTED:          0  ISSUED:          0  USEFUL:     212319  USELESS:      51058
L2C USEFUL LOAD PREFETCHES:     212319 PREFETCH ISSUED TO LOWER LEVEL:          0  ACCURACY: inf
L2C TIMELY PREFETCHES:     212319 LATE PREFETCHES: 0 DROPPED PREFETCHES: 0
L2C PREFETCHES SAME FILL-ORIGIN LEVEL: 0 DIFFERENT FILL-ORIGIN LEVEL: 0
L2C AVERAGE MISS LATENCY: 127.92 cycles
L2C RQ	ACCESS:    2484401	FORWARD:          0	MERGED:          0	TO_CACHE:    2484401
L2C WQ	ACCESS:     554350	FORWARD:          0	MERGED:          0	TO_CACHE:     554350

L2C Instructions Evicting Data 0
L2C Translations Evicting Data 203595
L2C Data Evicting Data 556185
L2C Instructions Evicting Instructions 0
L2C Translations Evicting Instructions 0
L2C Data Evicting Instructions 0
L2C Instructions Evicting Translations 0
L2C Translations Evicting Translations 173156
L2C Data Evicting Translations 203794
L2C Dense regions hint from L2: 0
PSCL5 TOTAL     ACCESS:    1180765  HIT:    1180765  MISS:          0  HIT %:        100  MISS %:          0   MPKI: 0
PSCL5 LOAD TRANSLATION ACCESS:     535009  HIT:     535009  MISS:          0  HIT %:        100  MISS %:          0   MPKI: 0
PSCL5 PREFETCH TRANSLATION ACCESS:     645756  HIT:     645756  MISS:          0  HIT %:        100  MISS %:          0   MPKI: 0
PSCL5 PREFETCH  REQUESTED:          0  ISSUED:          0  USEFUL:          0  USELESS:          0
PSCL5 USEFUL LOAD PREFETCHES:          0 PREFETCH ISSUED TO LOWER LEVEL:          0  ACCURACY: -nan
PSCL5 TIMELY PREFETCHES:          0 LATE PREFETCHES: 0 DROPPED PREFETCHES: 0
PSCL5 PREFETCHES SAME FILL-ORIGIN LEVEL: 0 DIFFERENT FILL-ORIGIN LEVEL: 0

PSCL4 TOTAL     ACCESS:    1180765  HIT:    1180765  MISS:          0  HIT %:        100  MISS %:          0   MPKI: 0
PSCL4 LOAD TRANSLATION ACCESS:     535009  HIT:     535009  MISS:          0  HIT %:        100  MISS %:          0   MPKI: 0
PSCL4 PREFETCH TRANSLATION ACCESS:     645756  HIT:     645756  MISS:          0  HIT %:        100  MISS %:          0   MPKI: 0
PSCL4 PREFETCH  REQUESTED:          0  ISSUED:          0  USEFUL:          0  USELESS:          0
PSCL4 USEFUL LOAD PREFETCHES:          0 PREFETCH ISSUED TO LOWER LEVEL:          0  ACCURACY: -nan
PSCL4 TIMELY PREFETCHES:          0 LATE PREFETCHES: 0 DROPPED PREFETCHES: 0
PSCL4 PREFETCHES SAME FILL-ORIGIN LEVEL: 0 DIFFERENT FILL-ORIGIN LEVEL: 0

PSCL3 TOTAL     ACCESS:    1180368  HIT:    1180368  MISS:          0  HIT %:        100  MISS %:          0   MPKI: 0
PSCL3 LOAD TRANSLATION ACCESS:     535009  HIT:     535009  MISS:          0  HIT %:        100  MISS %:          0   MPKI: 0
PSCL3 PREFETCH TRANSLATION ACCESS:     645359  HIT:     645359  MISS:          0  HIT %:        100  MISS %:          0   MPKI: 0
PSCL3 PREFETCH  REQUESTED:          0  ISSUED:          0  USEFUL:          0  USELESS:          0
PSCL3 USEFUL LOAD PREFETCHES:          0 PREFETCH ISSUED TO LOWER LEVEL:          0  ACCURACY: -nan
PSCL3 TIMELY PREFETCHES:          0 LATE PREFETCHES: 0 DROPPED PREFETCHES: 0
PSCL3 PREFETCHES SAME FILL-ORIGIN LEVEL: 0 DIFFERENT FILL-ORIGIN LEVEL: 0

PSCL2 TOTAL     ACCESS:    1159589  HIT:    1078467  MISS:      81122  HIT %:    93.0042  MISS %:    6.99575   MPKI: 3.24488
PSCL2 LOAD TRANSLATION ACCESS:     598112  HIT:     516990  MISS:      81122  HIT %:     86.437  MISS %:     13.563   MPKI: 3.24488
PSCL2 PREFETCH TRANSLATION ACCESS:     561477  HIT:     561477  MISS:          0  HIT %:        100  MISS %:          0   MPKI: 0
PSCL2 PREFETCH  REQUESTED:          0  ISSUED:          0  USEFUL:          0  USELESS:          0
PSCL2 USEFUL LOAD PREFETCHES:          0 PREFETCH ISSUED TO LOWER LEVEL:          0  ACCURACY: -nan
PSCL2 TIMELY PREFETCHES:          0 LATE PREFETCHES: 0 DROPPED PREFETCHES: 0
PSCL2 PREFETCHES SAME FILL-ORIGIN LEVEL: 0 DIFFERENT FILL-ORIGIN LEVEL: 0

LLC TOTAL     ACCESS:    1691392  HIT:    1039794  MISS:     651598  HIT %:    61.4756  MISS %:    38.5244   MPKI: 26.0639
LLC LOAD      ACCESS:     728078  HIT:      86608  MISS:     641470  HIT %:    11.8954  MISS %:    88.1046   MPKI: 25.6588
LLC RFO       ACCESS:      31901  HIT:      31897  MISS:          4  HIT %:    99.9875  MISS %:  0.0125388   MPKI: 0.00016
LLC WRITEBACK ACCESS:     554662  HIT:     554662  MISS:          0  HIT %:        100  MISS %:          0   MPKI: 0
LLC LOAD TRANSLATION ACCESS:     113301  HIT:     110591  MISS:       2710  HIT %:    97.6081  MISS %:    2.39186   MPKI: 0.1084
LLC PREFETCH TRANSLATION ACCESS:     263450  HIT:     256036  MISS:       7414  HIT %:    97.1858  MISS %:     2.8142   MPKI: 0.29656
LLC PREFETCH  REQUESTED:          0  ISSUED:          0  USEFUL:       4345  USELESS:       3078
LLC USEFUL LOAD PREFETCHES:       4345 PREFETCH ISSUED TO LOWER LEVEL:          0  ACCURACY: inf
LLC TIMELY PREFETCHES:       4345 LATE PREFETCHES: 0 DROPPED PREFETCHES: 0
LLC PREFETCHES SAME FILL-ORIGIN LEVEL: 0 DIFFERENT FILL-ORIGIN LEVEL: 0
LLC AVERAGE MISS LATENCY: 170.602 cycles
LLC RQ	ACCESS:    1136731	FORWARD:          0	MERGED:          0	TO_CACHE:    1136731
LLC WQ	ACCESS:     554662	FORWARD:          0	MERGED:          0	TO_CACHE:     554662

LLC Dense regions hint to LLC: 0

RAW hits: 484282
Loads Generated: 6650536
Loads sent to L1D: 6166251
Stores Generated: 1108672
Stores sent to L1D: 1108674
Major fault: 0 Minor fault: 23116
Allocated PAGES: 23116
CPU 0 STLB arbitrary stride prefetcher final stats
Degree: 7

DRAM Statistics
 CHANNEL 0
 RQ ROW_BUFFER_HIT:        957  ROW_BUFFER_MISS:     650641
 DBUS_CONGESTED:          0
 WQ ROW_BUFFER_HIT:     241318  ROW_BUFFER_MISS:     313159  FULL:          0

 AVG_CONGESTED_CYCLE: -
 All warmup complete: 2
Channel 0 Bank busy for read cycles: 0
Channel 0 Bank busy for write cycles: 0
Channel 0
Rank 0
0banks busy for read cycles: 1861589
0banks busy for write cycles: 46325
1banks busy for read cycles: 18078918
1banks busy for write cycles: 3723750
2banks busy for read cycles: 13326058
2banks busy for write cycles: 5985732
3banks busy for read cycles: 12130283
3banks busy for write cycles: 9344308
4banks busy for read cycles: 4054115
4banks busy for write cycles: 8539294
5banks busy for read cycles: 61002
5banks busy for write cycles: 3690080
6banks busy for read cycles: 165
6banks busy for write cycles: 1541003
7banks busy for read cycles: 0
7banks busy for write cycles: 787794
8banks busy for read cycles: 0
8banks busy for write cycles: 613046

CPU 0 Branch Prediction Accuracy: 99.9685% MPKI: 0.04912 Average ROB Occupancy at Mispredict: 155.611
Branch types
NOT_BRANCH: 21105636 84.4225%
BRANCH_DIRECT_JUMP: 568310 2.27324%
BRANCH_INDIRECT: 0 0%
BRANCH_CONDITIONAL: 2217336 8.86934%
BRANCH_DIRECT_CALL: 554334 2.21734%
BRANCH_INDIRECT_CALL: 0 0%
BRANCH_RETURN: 554334 2.21734%
BRANCH_OTHER: 0 0%

DRAM PAGES: 1048576
Allocated PAGES: 23116
