
*** ChampSim Multicore Out-of-Order Simulator ***

Warmup Instructions: 25000000
Simulation Instructions: 25000000
Number of CPUs: 1
LLC sets: 2048
LLC ways: 16
Off-chip DRAM Size: 4096 MB Channels: 1 Width: 64-bit Data Rate: 6400 MT/s
CPU 0 runs ../traces/trace3.champsimtrace.xz
.xz
CPU 0 Bimodal branch predictor
BTB has LRU replacement policy
ITLB has LRU replacement policy
DTLB has LRU replacement policy
STLB has LRU replacement policy
L1I has LRU replacement policy
CPU 0 L1D Complex-Stride prefetcher
L1D has LRU replacement policy
L2C has LRU replacement policy
LLC has LRU replacement policy
Heartbeat CPU 0 instructions: 10000001 cycles: 3749759 heartbeat IPC: 2.66684 cumulative IPC: 2.66684 (Simulation time: 0 hr 0 min 24 sec) 
Heartbeat CPU 0 instructions: 20000000 cycles: 7470286 heartbeat IPC: 2.68779 cumulative IPC: 2.67727 (Simulation time: 0 hr 0 min 42 sec) 

Warmup complete CPU 0 instructions: 25000004 cycles: 9360252 (Simulation time: 0 hr 0 min 52 sec) 

Heartbeat CPU 0 instructions: 30000001 cycles: 37844641 heartbeat IPC: 0.329225 cumulative IPC: 0.175535 (Simulation time: 0 hr 1 min 9 sec) 
Heartbeat CPU 0 instructions: 40000001 cycles: 95189797 heartbeat IPC: 0.174383 cumulative IPC: 0.174765 (Simulation time: 0 hr 1 min 43 sec) 
Heartbeat CPU 0 instructions: 50000000 cycles: 155737144 heartbeat IPC: 0.16516 cumulative IPC: 0.170792 (Simulation time: 0 hr 2 min 19 sec) 
Finished CPU 0 instructions: 25000000 cycles: 146376894 cumulative IPC: 0.170792 (Simulation time: 0 hr 2 min 19 sec) 

ChampSim completed all CPUs

Region of Interest Statistics

CPU 0 cumulative IPC: 0.170792 instructions: 25000000 cycles: 146376894
ITLB TOTAL     ACCESS:    4041140  HIT:    4041140  MISS:          0  HIT %:        100  MISS %:          0   MPKI: 0
ITLB LOAD TRANSLATION ACCESS:    4041140  HIT:    4041140  MISS:          0  HIT %:        100  MISS %:          0   MPKI: 0
ITLB PREFETCH  REQUESTED:          0  ISSUED:          0  USEFUL:          0  USELESS:          0
ITLB USEFUL LOAD PREFETCHES:          0 PREFETCH ISSUED TO LOWER LEVEL:          0  ACCURACY: -nan
ITLB TIMELY PREFETCHES:          0 LATE PREFETCHES: 0 DROPPED PREFETCHES: 0
ITLB PREFETCHES SAME FILL-ORIGIN LEVEL: 0 DIFFERENT FILL-ORIGIN LEVEL: 0
ITLB AVERAGE MISS LATENCY: -nan cycles
ITLB RQ	ACCESS:    4092385	FORWARD:          0	MERGED:      51246	TO_CACHE:    4041139

DTLB TOTAL     ACCESS:    5222374  HIT:    3018518  MISS:    2203856  HIT %:    57.7997  MISS %:    42.2003   MPKI: 88.1542
DTLB LOAD TRANSLATION ACCESS:    5222374  HIT:    3018518  MISS:    2203856  HIT %:    57.7997  MISS %:    42.2003   MPKI: 88.1542
DTLB PREFETCH  REQUESTED:          0  ISSUED:          0  USEFUL:          0  USELESS:          0
DTLB USEFUL LOAD PREFETCHES:          0 PREFETCH ISSUED TO LOWER LEVEL:          0  ACCURACY: -nan
DTLB TIMELY PREFETCHES:          0 LATE PREFETCHES: 0 DROPPED PREFETCHES: 0
DTLB PREFETCHES SAME FILL-ORIGIN LEVEL: 0 DIFFERENT FILL-ORIGIN LEVEL: 0
DTLB AVERAGE MISS LATENCY: 11.2716 cycles
DTLB RQ	ACCESS:    5751606	FORWARD:          0	MERGED:     494571	TO_CACHE:    5257035

STLB TOTAL     ACCESS:    3772878  HIT:    3743871  MISS:      29007  HIT %:    99.2312  MISS %:    0.76883   MPKI: 1.16028
STLB LOAD TRANSLATION ACCESS:    2203856  HIT:    2174849  MISS:      29007  HIT %:    98.6838  MISS %:    1.31619   MPKI: 1.16028
STLB TRANSLATION FROM L1D PREFETCHER ACCESS:    1569022  HIT:    1569022  MISS:          0  HIT %:        100  MISS %:          0   MPKI: 0
STLB PREFETCH  REQUESTED:          0  ISSUED:          0  USEFUL:          0  USELESS:          0
STLB USEFUL LOAD PREFETCHES:          0 PREFETCH ISSUED TO LOWER LEVEL:          0  ACCURACY: -nan
STLB TIMELY PREFETCHES:          0 LATE PREFETCHES: 0 DROPPED PREFETCHES: 0
STLB PREFETCHES SAME FILL-ORIGIN LEVEL: 0 DIFFERENT FILL-ORIGIN LEVEL: 0
STLB AVERAGE MISS LATENCY: 137.637 cycles
STLB RQ	ACCESS:    8171036	FORWARD:          0	MERGED:    4398158	TO_CACHE:    3772878

STLB Hit, L1D data hit: 0
STLB Hit, L2C data hit: 0
STLB Hit, LLC data hit: 0
STLB Hit, LLC data miss: 0
STLB STLB hints to L2: 0
L1D TOTAL     ACCESS:    9950288  HIT:    5572319  MISS:    4377969  HIT %:    56.0016  MISS %:    43.9984   MPKI: 175.119
L1D LOAD      ACCESS:    5252053  HIT:    2355125  MISS:    2896928  HIT %:     44.842  MISS %:     55.158   MPKI: 115.877
L1D RFO       ACCESS:     424076  HIT:     416304  MISS:       7772  HIT %:    98.1673  MISS %:    1.83269   MPKI: 0.31088
L1D PREFETCH  ACCESS:    4274159  HIT:    2800890  MISS:    1473269  HIT %:    65.5308  MISS %:    34.4692   MPKI: 58.9308
AGUS PREFETCH L1 MISS: 0
L1D PREFETCH  REQUESTED:   15993616  ISSUED:   15990490  USEFUL:     986548  USELESS:     486856
L1D USEFUL LOAD PREFETCHES:     986548 PREFETCH ISSUED TO LOWER LEVEL:    1720251  ACCURACY: 57.3491
L1D TIMELY PREFETCHES:     986548 LATE PREFETCHES: 246977 DROPPED PREFETCHES: 0
L1D PREFETCHES SAME FILL-ORIGIN LEVEL: 1720251 DIFFERENT FILL-ORIGIN LEVEL: 0
L1D AVERAGE MISS LATENCY: 4.67029e+06 cycles
L1D RQ	ACCESS:    8951656	FORWARD:          0	MERGED:    3578271	TO_CACHE:    5308492
L1D WQ	ACCESS:     459661	FORWARD:      72083	MERGED:      16547	TO_CACHE:     443114
L1D PQ	ACCESS:   10023310	FORWARD:          0	MERGED:    4048940	TO_CACHE:    5967180

L1D UNIQUE REGIONS ACCESSED: 0
L1D REGIONS CONFLICTS: 0
L1D Cross Page Prefetch Requests: 0
L1D Same Page Prefetch Requests: 21015119
L1D ROI Sum of L1D PQ occupancy: 85529701
L1D PREFETCHES PUSHED FROM L2C: 0
L1I TOTAL     ACCESS:    4092386  HIT:    4092386  MISS:          0  HIT %:        100  MISS %:          0   MPKI: 0
L1I LOAD      ACCESS:    4092386  HIT:    4092386  MISS:          0  HIT %:        100  MISS %:          0   MPKI: 0
L1I PREFETCH  REQUESTED:          0  ISSUED:          0  USEFUL:          0  USELESS:          0
L1I USEFUL LOAD PREFETCHES:          0 PREFETCH ISSUED TO LOWER LEVEL:          0  ACCURACY: -nan
L1I TIMELY PREFETCHES:          0 LATE PREFETCHES: 0 DROPPED PREFETCHES: 0
L1I PREFETCHES SAME FILL-ORIGIN LEVEL: 0 DIFFERENT FILL-ORIGIN LEVEL: 0
L1I AVERAGE MISS LATENCY: -nan cycles
L1I RQ	ACCESS:    5493258	FORWARD:          0	MERGED:    1400873	TO_CACHE:    4092385

BTB TOTAL     ACCESS:    7381233  HIT:    7359090  MISS:      22143  HIT %:       99.7  MISS %:   0.299991   MPKI: 0.88572
BTB BRANCH_DIRECT_JUMP	ACCESS:     954613  HIT:     954578  MISS:         35
BTB BRANCH_INDIRECT	ACCESS:          0  HIT:          0  MISS:          0
BTB BRANCH_CONDITIONAL	ACCESS:    6254608  HIT:    6254529  MISS:         79
BTB BRANCH_DIRECT_CALL	ACCESS:      79755  HIT:      79739  MISS:         16
BTB BRANCH_INDIRECT_CALL	ACCESS:       6250  HIT:       6242  MISS:          8
BTB BRANCH_RETURN	ACCESS:      86007  HIT:      64002  MISS:      22005
BTB BRANCH_OTHER ACCESS:          0  HIT:          0  MISS:          0

L2C TOTAL     ACCESS:    4487179  HIT:     504719  MISS:    3982460  HIT %:     11.248  MISS %:     88.752   MPKI: 159.298
L2C LOAD      ACCESS:    2649945  HIT:     369807  MISS:    2280138  HIT %:    13.9553  MISS %:    86.0447   MPKI: 91.2055
L2C DATA LOAD MPKI: 91.2055
L2C INSTRUCTION LOAD MPKI: 0
L2C RFO       ACCESS:       7772  HIT:        574  MISS:       7198  HIT %:    7.38549  MISS %:    92.6145   MPKI: 0.28792
L2C PREFETCH  ACCESS:    1720245  HIT:      34263  MISS:    1685982  HIT %:    1.99175  MISS %:    98.0082   MPKI: 67.4393
AGUS PREFETCH L1 MISS: 0
L2C DATA PREFETCH MPKI: 67.4393
L2C INSTRUCTION PREFETCH MPKI: 0
L2C WRITEBACK ACCESS:      80045  HIT:      80045  MISS:          0  HIT %:        100  MISS %:          0   MPKI: 0
L2C LOAD TRANSLATION ACCESS:      29172  HIT:      20030  MISS:       9142  HIT %:    68.6617  MISS %:    31.3383   MPKI: 0.36568
L2C PREFETCH  REQUESTED:          0  ISSUED:          0  USEFUL:      20164  USELESS:    1666294
L2C USEFUL LOAD PREFETCHES:      20164 PREFETCH ISSUED TO LOWER LEVEL:    1685987  ACCURACY: 1.19598
L2C TIMELY PREFETCHES:      20164 LATE PREFETCHES: 0 DROPPED PREFETCHES: 0
L2C PREFETCHES SAME FILL-ORIGIN LEVEL: 0 DIFFERENT FILL-ORIGIN LEVEL: 0
L2C AVERAGE MISS LATENCY: 127.325 cycles
L2C RQ	ACCESS:    2686895	FORWARD:          0	MERGED:          0	TO_CACHE:    2686889
L2C WQ	ACCESS:      80045	FORWARD:          7	MERGED:          0	TO_CACHE:      80045
L2C PQ	ACCESS:    1720251	FORWARD:          0	MERGED:          0	TO_CACHE:    1720250

L2C Instructions Evicting Data 0
L2C Translations Evicting Data 9120
L2C Data Evicting Data 3964219
L2C Instructions Evicting Instructions 0
L2C Translations Evicting Instructions 0
L2C Data Evicting Instructions 0
L2C Instructions Evicting Translations 0
L2C Translations Evicting Translations 22
L2C Data Evicting Translations 9099
L2C Dense regions hint from L2: 0
PSCL5 TOTAL     ACCESS:      29007  HIT:      29007  MISS:          0  HIT %:        100  MISS %:          0   MPKI: 0
PSCL5 LOAD TRANSLATION ACCESS:      29007  HIT:      29007  MISS:          0  HIT %:        100  MISS %:          0   MPKI: 0
PSCL5 PREFETCH  REQUESTED:          0  ISSUED:          0  USEFUL:          0  USELESS:          0
PSCL5 USEFUL LOAD PREFETCHES:          0 PREFETCH ISSUED TO LOWER LEVEL:          0  ACCURACY: -nan
PSCL5 TIMELY PREFETCHES:          0 LATE PREFETCHES: 0 DROPPED PREFETCHES: 0
PSCL5 PREFETCHES SAME FILL-ORIGIN LEVEL: 0 DIFFERENT FILL-ORIGIN LEVEL: 0

PSCL4 TOTAL     ACCESS:      29007  HIT:      29007  MISS:          0  HIT %:        100  MISS %:          0   MPKI: 0
PSCL4 LOAD TRANSLATION ACCESS:      29007  HIT:      29007  MISS:          0  HIT %:        100  MISS %:          0   MPKI: 0
PSCL4 PREFETCH  REQUESTED:          0  ISSUED:          0  USEFUL:          0  USELESS:          0
PSCL4 USEFUL LOAD PREFETCHES:          0 PREFETCH ISSUED TO LOWER LEVEL:          0  ACCURACY: -nan
PSCL4 TIMELY PREFETCHES:          0 LATE PREFETCHES: 0 DROPPED PREFETCHES: 0
PSCL4 PREFETCHES SAME FILL-ORIGIN LEVEL: 0 DIFFERENT FILL-ORIGIN LEVEL: 0

PSCL3 TOTAL     ACCESS:      29007  HIT:      29007  MISS:          0  HIT %:        100  MISS %:          0   MPKI: 0
PSCL3 LOAD TRANSLATION ACCESS:      29007  HIT:      29007  MISS:          0  HIT %:        100  MISS %:          0   MPKI: 0
PSCL3 PREFETCH  REQUESTED:          0  ISSUED:          0  USEFUL:          0  USELESS:          0
PSCL3 USEFUL LOAD PREFETCHES:          0 PREFETCH ISSUED TO LOWER LEVEL:          0  ACCURACY: -nan
PSCL3 TIMELY PREFETCHES:          0 LATE PREFETCHES: 0 DROPPED PREFETCHES: 0
PSCL3 PREFETCHES SAME FILL-ORIGIN LEVEL: 0 DIFFERENT FILL-ORIGIN LEVEL: 0

PSCL2 TOTAL     ACCESS:      29007  HIT:      28706  MISS:        301  HIT %:    98.9623  MISS %:    1.03768   MPKI: 0.01204
PSCL2 LOAD TRANSLATION ACCESS:      29007  HIT:      28706  MISS:        301  HIT %:    98.9623  MISS %:    1.03768   MPKI: 0.01204
PSCL2 PREFETCH  REQUESTED:          0  ISSUED:          0  USEFUL:          0  USELESS:          0
PSCL2 USEFUL LOAD PREFETCHES:          0 PREFETCH ISSUED TO LOWER LEVEL:          0  ACCURACY: -nan
PSCL2 TIMELY PREFETCHES:          0 LATE PREFETCHES: 0 DROPPED PREFETCHES: 0
PSCL2 PREFETCHES SAME FILL-ORIGIN LEVEL: 0 DIFFERENT FILL-ORIGIN LEVEL: 0

LLC TOTAL     ACCESS:    4059041  HIT:    1729523  MISS:    2329518  HIT %:    42.6092  MISS %:    57.3908   MPKI: 93.1807
LLC LOAD      ACCESS:    2280138  HIT:    1502093  MISS:     778045  HIT %:    65.8773  MISS %:    34.1227   MPKI: 31.1218
LLC RFO       ACCESS:       7198  HIT:       6086  MISS:       1112  HIT %:    84.5513  MISS %:    15.4487   MPKI: 0.04448
LLC PREFETCH  ACCESS:    1685983  HIT:     141092  MISS:    1544891  HIT %:    8.36853  MISS %:    91.6315   MPKI: 61.7956
AGUS PREFETCH L1 MISS: 0
LLC WRITEBACK ACCESS:      76580  HIT:      76486  MISS:         94  HIT %:    99.8773  MISS %:   0.122747   MPKI: 0.00376
LLC LOAD TRANSLATION ACCESS:       9142  HIT:       3766  MISS:       5376  HIT %:    41.1945  MISS %:    58.8055   MPKI: 0.21504
LLC PREFETCH  REQUESTED:          0  ISSUED:          0  USEFUL:      24622  USELESS:    1521583
LLC USEFUL LOAD PREFETCHES:      24622 PREFETCH ISSUED TO LOWER LEVEL:    1544895  ACCURACY: 1.59377
LLC TIMELY PREFETCHES:      24622 LATE PREFETCHES: 0 DROPPED PREFETCHES: 0
LLC PREFETCHES SAME FILL-ORIGIN LEVEL: 0 DIFFERENT FILL-ORIGIN LEVEL: 0
LLC AVERAGE MISS LATENCY: 165.743 cycles
LLC RQ	ACCESS:    2296478	FORWARD:          0	MERGED:          0	TO_CACHE:    2296478
LLC WQ	ACCESS:      76580	FORWARD:          0	MERGED:          0	TO_CACHE:      76580
LLC PQ	ACCESS:    1685987	FORWARD:          0	MERGED:          0	TO_CACHE:    1685987

LLC Dense regions hint to LLC: 0

RAW hits: 62671
Loads Generated: 9014327
Loads sent to L1D: 8951656
Stores Generated: 459660
Stores sent to L1D: 459661
Major fault: 0 Minor fault: 44120
Allocated PAGES: 44120
CPU 0 L1D complex stride prefetcher final stats
Degree: 5

DRAM Statistics
 CHANNEL 0
 RQ ROW_BUFFER_HIT:     803631  ROW_BUFFER_MISS:    1525764
 DBUS_CONGESTED:        243
 WQ ROW_BUFFER_HIT:      10168  ROW_BUFFER_MISS:      30103  FULL:          0

 AVG_CONGESTED_CYCLE: 4
 All warmup complete: 2
Channel 0 Bank busy for read cycles: 0
Channel 0 Bank busy for write cycles: 0
Channel 0
Rank 0
0banks busy for read cycles: 46854101
0banks busy for write cycles: 14105
1banks busy for read cycles: 32787572
1banks busy for write cycles: 2698465
2banks busy for read cycles: 18950495
2banks busy for write cycles: 566483
3banks busy for read cycles: 12974343
3banks busy for write cycles: 232635
4banks busy for read cycles: 10581685
4banks busy for write cycles: 141584
5banks busy for read cycles: 9007575
5banks busy for write cycles: 100066
6banks busy for read cycles: 6108864
6banks busy for write cycles: 96766
7banks busy for read cycles: 3377812
7banks busy for write cycles: 141244
8banks busy for read cycles: 1476092
8banks busy for write cycles: 267008

CPU 0 Branch Prediction Accuracy: 96.3142% MPKI: 11.2642 Average ROB Occupancy at Mispredict: 45.4923
Branch types
NOT_BRANCH: 17359361 69.4374%
BRANCH_DIRECT_JUMP: 954613 3.81845%
BRANCH_INDIRECT: 0 0%
BRANCH_CONDITIONAL: 6513665 26.0547%
BRANCH_DIRECT_CALL: 79755 0.31902%
BRANCH_INDIRECT_CALL: 6250 0.025%
BRANCH_RETURN: 86007 0.344028%
BRANCH_OTHER: 0 0%

DRAM PAGES: 1048576
Allocated PAGES: 44120
