
*** ChampSim Multicore Out-of-Order Simulator ***

Warmup Instructions: 25000000
Simulation Instructions: 25000000
Number of CPUs: 1
LLC sets: 2048
LLC ways: 16
Off-chip DRAM Size: 4096 MB Channels: 1 Width: 64-bit Data Rate: 6400 MT/s
CPU 0 runs ../traces/trace2.champsimtrace.xz
.xz
CPU 0 Bimodal branch predictor
BTB has LRU replacement policy
ITLB has LRU replacement policy
DTLB has LRU replacement policy
STLB has LRU replacement policy
L1I has LRU replacement policy
CPU 0 L1D Complex-Stride prefetcher
L1D has LRU replacement policy
L2C has LRU replacement policy
LLC has LRU replacement policy
Heartbeat CPU 0 instructions: 10000002 cycles: 3733876 heartbeat IPC: 2.67818 cumulative IPC: 2.67818 (Simulation time: 0 hr 0 min 22 sec) 
Heartbeat CPU 0 instructions: 20000001 cycles: 7469092 heartbeat IPC: 2.67722 cumulative IPC: 2.6777 (Simulation time: 0 hr 0 min 38 sec) 

Warmup complete CPU 0 instructions: 25000001 cycles: 9335752 (Simulation time: 0 hr 0 min 47 sec) 

Heartbeat CPU 0 instructions: 30000001 cycles: 23627522 heartbeat IPC: 0.618872 cumulative IPC: 0.349852 (Simulation time: 0 hr 1 min 1 sec) 
Heartbeat CPU 0 instructions: 40000002 cycles: 51628065 heartbeat IPC: 0.357136 cumulative IPC: 0.354674 (Simulation time: 0 hr 1 min 28 sec) 
Heartbeat CPU 0 instructions: 50000000 cycles: 79096407 heartbeat IPC: 0.364055 cumulative IPC: 0.358368 (Simulation time: 0 hr 1 min 56 sec) 
Finished CPU 0 instructions: 25000000 cycles: 69760677 cumulative IPC: 0.358368 (Simulation time: 0 hr 1 min 56 sec) 

ChampSim completed all CPUs

Region of Interest Statistics

CPU 0 cumulative IPC: 0.358368 instructions: 25000000 cycles: 69760677
ITLB TOTAL     ACCESS:    4597374  HIT:    4597374  MISS:          0  HIT %:        100  MISS %:          0   MPKI: 0
ITLB LOAD TRANSLATION ACCESS:    4597374  HIT:    4597374  MISS:          0  HIT %:        100  MISS %:          0   MPKI: 0
ITLB PREFETCH  REQUESTED:          0  ISSUED:          0  USEFUL:          0  USELESS:          0
ITLB USEFUL LOAD PREFETCHES:          0 PREFETCH ISSUED TO LOWER LEVEL:          0  ACCURACY: -nan
ITLB TIMELY PREFETCHES:          0 LATE PREFETCHES: 0 DROPPED PREFETCHES: 0
ITLB PREFETCHES SAME FILL-ORIGIN LEVEL: 0 DIFFERENT FILL-ORIGIN LEVEL: 0
ITLB AVERAGE MISS LATENCY: -nan cycles
ITLB RQ	ACCESS:    4682786	FORWARD:          0	MERGED:      85413	TO_CACHE:    4597373

DTLB TOTAL     ACCESS:    3869202  HIT:    3835188  MISS:      34014  HIT %:    99.1209  MISS %:   0.879096   MPKI: 1.36056
DTLB LOAD TRANSLATION ACCESS:    3869202  HIT:    3835188  MISS:      34014  HIT %:    99.1209  MISS %:   0.879096   MPKI: 1.36056
DTLB PREFETCH  REQUESTED:          0  ISSUED:          0  USEFUL:          0  USELESS:          0
DTLB USEFUL LOAD PREFETCHES:          0 PREFETCH ISSUED TO LOWER LEVEL:          0  ACCURACY: -nan
DTLB TIMELY PREFETCHES:          0 LATE PREFETCHES: 0 DROPPED PREFETCHES: 0
DTLB PREFETCHES SAME FILL-ORIGIN LEVEL: 0 DIFFERENT FILL-ORIGIN LEVEL: 0
DTLB AVERAGE MISS LATENCY: 107.207 cycles
DTLB RQ	ACCESS:    4553941	FORWARD:          0	MERGED:     684614	TO_CACHE:    3869327

STLB TOTAL     ACCESS:    3282720  HIT:    3250067  MISS:      32653  HIT %:    99.0053  MISS %:   0.994693   MPKI: 1.30612
STLB LOAD TRANSLATION ACCESS:      34014  HIT:       1361  MISS:      32653  HIT %:    4.00129  MISS %:    95.9987   MPKI: 1.30612
STLB TRANSLATION FROM L1D PREFETCHER ACCESS:    3248706  HIT:    3248706  MISS:          0  HIT %:        100  MISS %:          0   MPKI: 0
STLB PREFETCH  REQUESTED:          0  ISSUED:          0  USEFUL:          0  USELESS:          0
STLB USEFUL LOAD PREFETCHES:          0 PREFETCH ISSUED TO LOWER LEVEL:          0  ACCURACY: -nan
STLB TIMELY PREFETCHES:          0 LATE PREFETCHES: 0 DROPPED PREFETCHES: 0
STLB PREFETCHES SAME FILL-ORIGIN LEVEL: 0 DIFFERENT FILL-ORIGIN LEVEL: 0
STLB AVERAGE MISS LATENCY: 102.286 cycles
STLB RQ	ACCESS:   12267443	FORWARD:          0	MERGED:    8984723	TO_CACHE:    3282720

STLB Hit, L1D data hit: 0
STLB Hit, L2C data hit: 0
STLB Hit, LLC data hit: 0
STLB Hit, LLC data miss: 0
STLB STLB hints to L2: 0
L1D TOTAL     ACCESS:   13816405  HIT:   11975970  MISS:    1840435  HIT %:    86.6793  MISS %:    13.3207   MPKI: 73.6174
L1D LOAD      ACCESS:    4189634  HIT:    3960007  MISS:     229627  HIT %:    94.5192  MISS %:    5.48084   MPKI: 9.18508
L1D RFO       ACCESS:     333325  HIT:     333131  MISS:        194  HIT %:    99.9418  MISS %:  0.0582015   MPKI: 0.00776
L1D PREFETCH  ACCESS:    9293446  HIT:    7682832  MISS:    1610614  HIT %:    82.6694  MISS %:    17.3306   MPKI: 64.4246
AGUS PREFETCH L1 MISS: 0
L1D PREFETCH  REQUESTED:   30928363  ISSUED:   30928256  USEFUL:    1522505  USELESS:      88149
L1D USEFUL LOAD PREFETCHES:    1522505 PREFETCH ISSUED TO LOWER LEVEL:    1785116  ACCURACY: 85.2889
L1D TIMELY PREFETCHES:    1522505 LATE PREFETCHES: 174434 DROPPED PREFETCHES: 0
L1D PREFETCHES SAME FILL-ORIGIN LEVEL: 1785116 DIFFERENT FILL-ORIGIN LEVEL: 0
L1D AVERAGE MISS LATENCY: 3.90859e+06 cycles
L1D RQ	ACCESS:    8972935	FORWARD:          0	MERGED:    4750766	TO_CACHE:    4220612
L1D WQ	ACCESS:     370377	FORWARD:       1582	MERGED:      37048	TO_CACHE:     333329
L1D PQ	ACCESS:   18694827	FORWARD:          0	MERGED:    6461373	TO_CACHE:   12233429

L1D UNIQUE REGIONS ACCESSED: 0
L1D REGIONS CONFLICTS: 0
L1D Cross Page Prefetch Requests: 0
L1D Same Page Prefetch Requests: 48017269
L1D ROI Sum of L1D PQ occupancy: 167336010
L1D PREFETCHES PUSHED FROM L2C: 0
L1I TOTAL     ACCESS:    4682786  HIT:    4682786  MISS:          0  HIT %:        100  MISS %:          0   MPKI: 0
L1I LOAD      ACCESS:    4682786  HIT:    4682786  MISS:          0  HIT %:        100  MISS %:          0   MPKI: 0
L1I PREFETCH  REQUESTED:          0  ISSUED:          0  USEFUL:          0  USELESS:          0
L1I USEFUL LOAD PREFETCHES:          0 PREFETCH ISSUED TO LOWER LEVEL:          0  ACCURACY: -nan
L1I TIMELY PREFETCHES:          0 LATE PREFETCHES: 0 DROPPED PREFETCHES: 0
L1I PREFETCHES SAME FILL-ORIGIN LEVEL: 0 DIFFERENT FILL-ORIGIN LEVEL: 0
L1I AVERAGE MISS LATENCY: -nan cycles
L1I RQ	ACCESS:    7025900	FORWARD:          0	MERGED:    2343114	TO_CACHE:    4682786

BTB TOTAL     ACCESS:    5953193  HIT:    5953095  MISS:         98  HIT %:    99.9984  MISS %: 0.00164618   MPKI: 0.00392
BTB BRANCH_DIRECT_JUMP	ACCESS:      85874  HIT:      85848  MISS:         26
BTB BRANCH_INDIRECT	ACCESS:          0  HIT:          0  MISS:          0
BTB BRANCH_CONDITIONAL	ACCESS:    5783213  HIT:    5783164  MISS:         49
BTB BRANCH_DIRECT_CALL	ACCESS:      42053  HIT:      42043  MISS:         10
BTB BRANCH_INDIRECT_CALL	ACCESS:          0  HIT:          0  MISS:          0
BTB BRANCH_RETURN	ACCESS:      42053  HIT:      42040  MISS:         13
BTB BRANCH_OTHER ACCESS:          0  HIT:          0  MISS:          0

L2C TOTAL     ACCESS:    1876542  HIT:      70029  MISS:    1806513  HIT %:    3.73181  MISS %:    96.2682   MPKI: 72.2605
L2C LOAD      ACCESS:      55190  HIT:       4085  MISS:      51105  HIT %:     7.4017  MISS %:    92.5983   MPKI: 2.0442
L2C DATA LOAD MPKI: 2.0442
L2C INSTRUCTION LOAD MPKI: 0
L2C RFO       ACCESS:        126  HIT:         49  MISS:         77  HIT %:    38.8889  MISS %:    61.1111   MPKI: 0.00308
L2C PREFETCH  ACCESS:    1785116  HIT:      37260  MISS:    1747856  HIT %:    2.08726  MISS %:    97.9127   MPKI: 69.9142
AGUS PREFETCH L1 MISS: 0
L2C DATA PREFETCH MPKI: 69.9142
L2C INSTRUCTION PREFETCH MPKI: 0
L2C WRITEBACK ACCESS:       2844  HIT:       2809  MISS:         35  HIT %:    98.7693  MISS %:    1.23066   MPKI: 0.0014
L2C LOAD TRANSLATION ACCESS:      33266  HIT:      25826  MISS:       7440  HIT %:    77.6348  MISS %:    22.3652   MPKI: 0.2976
L2C PREFETCH  REQUESTED:          0  ISSUED:          0  USEFUL:       2230  USELESS:    1745045
L2C USEFUL LOAD PREFETCHES:       2230 PREFETCH ISSUED TO LOWER LEVEL:    1747856  ACCURACY: 0.127585
L2C TIMELY PREFETCHES:       2230 LATE PREFETCHES: 0 DROPPED PREFETCHES: 0
L2C PREFETCHES SAME FILL-ORIGIN LEVEL: 0 DIFFERENT FILL-ORIGIN LEVEL: 0
L2C AVERAGE MISS LATENCY: 108.153 cycles
L2C RQ	ACCESS:      88585	FORWARD:          0	MERGED:          0	TO_CACHE:      88582
L2C WQ	ACCESS:       2844	FORWARD:          3	MERGED:          0	TO_CACHE:       2844
L2C PQ	ACCESS:    1785116	FORWARD:          0	MERGED:          0	TO_CACHE:    1785116

L2C Instructions Evicting Data 0
L2C Translations Evicting Data 7422
L2C Data Evicting Data 1791627
L2C Instructions Evicting Instructions 0
L2C Translations Evicting Instructions 0
L2C Data Evicting Instructions 0
L2C Instructions Evicting Translations 0
L2C Translations Evicting Translations 18
L2C Data Evicting Translations 7411
L2C Dense regions hint from L2: 0
PSCL5 TOTAL     ACCESS:      32653  HIT:      32653  MISS:          0  HIT %:        100  MISS %:          0   MPKI: 0
PSCL5 LOAD TRANSLATION ACCESS:      32653  HIT:      32653  MISS:          0  HIT %:        100  MISS %:          0   MPKI: 0
PSCL5 PREFETCH  REQUESTED:          0  ISSUED:          0  USEFUL:          0  USELESS:          0
PSCL5 USEFUL LOAD PREFETCHES:          0 PREFETCH ISSUED TO LOWER LEVEL:          0  ACCURACY: -nan
PSCL5 TIMELY PREFETCHES:          0 LATE PREFETCHES: 0 DROPPED PREFETCHES: 0
PSCL5 PREFETCHES SAME FILL-ORIGIN LEVEL: 0 DIFFERENT FILL-ORIGIN LEVEL: 0

PSCL4 TOTAL     ACCESS:      32653  HIT:      32653  MISS:          0  HIT %:        100  MISS %:          0   MPKI: 0
PSCL4 LOAD TRANSLATION ACCESS:      32653  HIT:      32653  MISS:          0  HIT %:        100  MISS %:          0   MPKI: 0
PSCL4 PREFETCH  REQUESTED:          0  ISSUED:          0  USEFUL:          0  USELESS:          0
PSCL4 USEFUL LOAD PREFETCHES:          0 PREFETCH ISSUED TO LOWER LEVEL:          0  ACCURACY: -nan
PSCL4 TIMELY PREFETCHES:          0 LATE PREFETCHES: 0 DROPPED PREFETCHES: 0
PSCL4 PREFETCHES SAME FILL-ORIGIN LEVEL: 0 DIFFERENT FILL-ORIGIN LEVEL: 0

PSCL3 TOTAL     ACCESS:      32653  HIT:      32653  MISS:          0  HIT %:        100  MISS %:          0   MPKI: 0
PSCL3 LOAD TRANSLATION ACCESS:      32653  HIT:      32653  MISS:          0  HIT %:        100  MISS %:          0   MPKI: 0
PSCL3 PREFETCH  REQUESTED:          0  ISSUED:          0  USEFUL:          0  USELESS:          0
PSCL3 USEFUL LOAD PREFETCHES:          0 PREFETCH ISSUED TO LOWER LEVEL:          0  ACCURACY: -nan
PSCL3 TIMELY PREFETCHES:          0 LATE PREFETCHES: 0 DROPPED PREFETCHES: 0
PSCL3 PREFETCHES SAME FILL-ORIGIN LEVEL: 0 DIFFERENT FILL-ORIGIN LEVEL: 0

PSCL2 TOTAL     ACCESS:      32653  HIT:      31942  MISS:        711  HIT %:    97.8226  MISS %:    2.17744   MPKI: 0.02844
PSCL2 LOAD TRANSLATION ACCESS:      32653  HIT:      31942  MISS:        711  HIT %:    97.8226  MISS %:    2.17744   MPKI: 0.02844
PSCL2 PREFETCH  REQUESTED:          0  ISSUED:          0  USEFUL:          0  USELESS:          0
PSCL2 USEFUL LOAD PREFETCHES:          0 PREFETCH ISSUED TO LOWER LEVEL:          0  ACCURACY: -nan
PSCL2 TIMELY PREFETCHES:          0 LATE PREFETCHES: 0 DROPPED PREFETCHES: 0
PSCL2 PREFETCHES SAME FILL-ORIGIN LEVEL: 0 DIFFERENT FILL-ORIGIN LEVEL: 0

LLC TOTAL     ACCESS:    1809275  HIT:       6138  MISS:    1803137  HIT %:   0.339252  MISS %:    99.6607   MPKI: 72.1255
LLC LOAD      ACCESS:      51105  HIT:        512  MISS:      50593  HIT %:    1.00186  MISS %:    98.9981   MPKI: 2.02372
LLC RFO       ACCESS:         77  HIT:          0  MISS:         77  HIT %:          0  MISS %:        100   MPKI: 0.00308
LLC PREFETCH  ACCESS:    1747856  HIT:       2522  MISS:    1745334  HIT %:   0.144291  MISS %:    99.8557   MPKI: 69.8134
AGUS PREFETCH L1 MISS: 0
LLC WRITEBACK ACCESS:       2797  HIT:       2775  MISS:         22  HIT %:    99.2134  MISS %:   0.786557   MPKI: 0.00088
LLC LOAD TRANSLATION ACCESS:       7440  HIT:        329  MISS:       7111  HIT %:    4.42204  MISS %:     95.578   MPKI: 0.28444
LLC PREFETCH  REQUESTED:          0  ISSUED:          0  USEFUL:         25  USELESS:    1742984
LLC USEFUL LOAD PREFETCHES:         25 PREFETCH ISSUED TO LOWER LEVEL:    1745334  ACCURACY: 0.00143239
LLC TIMELY PREFETCHES:         25 LATE PREFETCHES: 0 DROPPED PREFETCHES: 0
LLC PREFETCHES SAME FILL-ORIGIN LEVEL: 0 DIFFERENT FILL-ORIGIN LEVEL: 0
LLC AVERAGE MISS LATENCY: 78.2141 cycles
LLC RQ	ACCESS:      58622	FORWARD:          0	MERGED:          0	TO_CACHE:      58622
LLC WQ	ACCESS:       2797	FORWARD:          0	MERGED:          0	TO_CACHE:       2797
LLC PQ	ACCESS:    1747856	FORWARD:          0	MERGED:          0	TO_CACHE:    1747856

LLC Dense regions hint to LLC: 0

RAW hits: 4012
Loads Generated: 8976947
Loads sent to L1D: 8972935
Stores Generated: 370377
Stores sent to L1D: 370377
Major fault: 0 Minor fault: 48857
Allocated PAGES: 48857
CPU 0 L1D complex stride prefetcher final stats
Degree: 5

DRAM Statistics
 CHANNEL 0
 RQ ROW_BUFFER_HIT:    1682451  ROW_BUFFER_MISS:     120664
 DBUS_CONGESTED:        355
 WQ ROW_BUFFER_HIT:        584  ROW_BUFFER_MISS:       2203  FULL:          0

 AVG_CONGESTED_CYCLE: 4
 All warmup complete: 2
Channel 0 Bank busy for read cycles: 0
Channel 0 Bank busy for write cycles: 0
Channel 0
Rank 0
0banks busy for read cycles: 27088260
0banks busy for write cycles: 1333
1banks busy for read cycles: 13754935
1banks busy for write cycles: 278298
2banks busy for read cycles: 10901552
2banks busy for write cycles: 97411
3banks busy for read cycles: 9136304
3banks busy for write cycles: 40278
4banks busy for read cycles: 4745569
4banks busy for write cycles: 25163
5banks busy for read cycles: 1931201
5banks busy for write cycles: 14457
6banks busy for read cycles: 1555779
6banks busy for write cycles: 5783
7banks busy for read cycles: 157055
7banks busy for write cycles: 2236
8banks busy for read cycles: 23317
8banks busy for write cycles: 1747

CPU 0 Branch Prediction Accuracy: 99.1323% MPKI: 3.09396 Average ROB Occupancy at Mispredict: 108.216
Branch types
NOT_BRANCH: 16085563 64.3423%
BRANCH_DIRECT_JUMP: 85874 0.343496%
BRANCH_INDIRECT: 0 0%
BRANCH_CONDITIONAL: 8744101 34.9764%
BRANCH_DIRECT_CALL: 42053 0.168212%
BRANCH_INDIRECT_CALL: 0 0%
BRANCH_RETURN: 42053 0.168212%
BRANCH_OTHER: 0 0%

DRAM PAGES: 1048576
Allocated PAGES: 48857
