
*** ChampSim Multicore Out-of-Order Simulator ***

Warmup Instructions: 25000000
Simulation Instructions: 25000000
Number of CPUs: 1
LLC sets: 2048
LLC ways: 16
Off-chip DRAM Size: 4096 MB Channels: 1 Width: 64-bit Data Rate: 6400 MT/s
CPU 0 runs ../traces/trace3.champsimtrace.xz
.xz
CPU 0 Bimodal branch predictor
BTB has LRU replacement policy
ITLB has LRU replacement policy
DTLB has LRU replacement policy
STLB has LRU replacement policy
L1I has LRU replacement policy
CPU 0 L1D IP-based stride prefetcher
L1D has LRU replacement policy
L2C has LRU replacement policy
LLC has LRU replacement policy
Heartbeat CPU 0 instructions: 10000001 cycles: 3742647 heartbeat IPC: 2.67191 cumulative IPC: 2.67191 (Simulation time: 0 hr 0 min 23 sec) 
Heartbeat CPU 0 instructions: 20000000 cycles: 7455048 heartbeat IPC: 2.69367 cumulative IPC: 2.68275 (Simulation time: 0 hr 0 min 40 sec) 

Warmup complete CPU 0 instructions: 25000004 cycles: 9341847 (Simulation time: 0 hr 0 min 49 sec) 

Heartbeat CPU 0 instructions: 30000001 cycles: 38437984 heartbeat IPC: 0.322758 cumulative IPC: 0.171844 (Simulation time: 0 hr 1 min 6 sec) 
Heartbeat CPU 0 instructions: 40000001 cycles: 97006436 heartbeat IPC: 0.17074 cumulative IPC: 0.171107 (Simulation time: 0 hr 1 min 38 sec) 
Heartbeat CPU 0 instructions: 50000000 cycles: 158738673 heartbeat IPC: 0.16199 cumulative IPC: 0.16734 (Simulation time: 0 hr 2 min 12 sec) 
Finished CPU 0 instructions: 25000000 cycles: 149396828 cumulative IPC: 0.16734 (Simulation time: 0 hr 2 min 12 sec) 

ChampSim completed all CPUs

Region of Interest Statistics

CPU 0 cumulative IPC: 0.16734 instructions: 25000000 cycles: 149396828
ITLB TOTAL     ACCESS:    4044371  HIT:    4044371  MISS:          0  HIT %:        100  MISS %:          0   MPKI: 0
ITLB LOAD TRANSLATION ACCESS:    4044371  HIT:    4044371  MISS:          0  HIT %:        100  MISS %:          0   MPKI: 0
ITLB PREFETCH  REQUESTED:          0  ISSUED:          0  USEFUL:          0  USELESS:          0
ITLB USEFUL LOAD PREFETCHES:          0 PREFETCH ISSUED TO LOWER LEVEL:          0  ACCURACY: -nan
ITLB TIMELY PREFETCHES:          0 LATE PREFETCHES: 0 DROPPED PREFETCHES: 0
ITLB PREFETCHES SAME FILL-ORIGIN LEVEL: 0 DIFFERENT FILL-ORIGIN LEVEL: 0
ITLB AVERAGE MISS LATENCY: -nan cycles
ITLB RQ	ACCESS:    4095644	FORWARD:          0	MERGED:      51274	TO_CACHE:    4044370

DTLB TOTAL     ACCESS:    5230729  HIT:    3026796  MISS:    2203933  HIT %:    57.8657  MISS %:    42.1343   MPKI: 88.1573
DTLB LOAD TRANSLATION ACCESS:    5230729  HIT:    3026796  MISS:    2203933  HIT %:    57.8657  MISS %:    42.1343   MPKI: 88.1573
DTLB PREFETCH  REQUESTED:          0  ISSUED:          0  USEFUL:          0  USELESS:          0
DTLB USEFUL LOAD PREFETCHES:          0 PREFETCH ISSUED TO LOWER LEVEL:          0  ACCURACY: -nan
DTLB TIMELY PREFETCHES:          0 LATE PREFETCHES: 0 DROPPED PREFETCHES: 0
DTLB PREFETCHES SAME FILL-ORIGIN LEVEL: 0 DIFFERENT FILL-ORIGIN LEVEL: 0
DTLB AVERAGE MISS LATENCY: 11.1237 cycles
DTLB RQ	ACCESS:    5761312	FORWARD:          0	MERGED:     496043	TO_CACHE:    5265269

STLB TOTAL     ACCESS:    2976209  HIT:    2947169  MISS:      29040  HIT %:    99.0243  MISS %:   0.975738   MPKI: 1.1616
STLB LOAD TRANSLATION ACCESS:    2203933  HIT:    2174893  MISS:      29040  HIT %:    98.6824  MISS %:    1.31764   MPKI: 1.1616
STLB TRANSLATION FROM L1D PREFETCHER ACCESS:     772276  HIT:     772276  MISS:          0  HIT %:        100  MISS %:          0   MPKI: 0
STLB PREFETCH  REQUESTED:          0  ISSUED:          0  USEFUL:          0  USELESS:          0
STLB USEFUL LOAD PREFETCHES:          0 PREFETCH ISSUED TO LOWER LEVEL:          0  ACCURACY: -nan
STLB TIMELY PREFETCHES:          0 LATE PREFETCHES: 0 DROPPED PREFETCHES: 0
STLB PREFETCHES SAME FILL-ORIGIN LEVEL: 0 DIFFERENT FILL-ORIGIN LEVEL: 0
STLB AVERAGE MISS LATENCY: 134.029 cycles
STLB RQ	ACCESS:    4586690	FORWARD:          0	MERGED:    1610481	TO_CACHE:    2976209

STLB Hit, L1D data hit: 0
STLB Hit, L2C data hit: 0
STLB Hit, LLC data hit: 0
STLB Hit, LLC data miss: 0
STLB STLB hints to L2: 0
L1D TOTAL     ACCESS:    7273447  HIT:    3380591  MISS:    3892856  HIT %:    46.4785  MISS %:    53.5215   MPKI: 155.714
L1D LOAD      ACCESS:    5241795  HIT:    2076669  MISS:    3165126  HIT %:    39.6175  MISS %:    60.3825   MPKI: 126.605
L1D RFO       ACCESS:     424215  HIT:     416471  MISS:       7744  HIT %:    98.1745  MISS %:    1.82549   MPKI: 0.30976
L1D PREFETCH  ACCESS:    1607437  HIT:     887451  MISS:     719986  HIT %:    55.2091  MISS %:    44.7909   MPKI: 28.7994
AGUS PREFETCH L1 MISS: 0
L1D PREFETCH  REQUESTED:    7089636  ISSUED:    7089635  USEFUL:     709396  USELESS:      10590
L1D USEFUL LOAD PREFETCHES:     709396 PREFETCH ISSUED TO LOWER LEVEL:    1088256  ACCURACY: 65.1865
L1D TIMELY PREFETCHES:     709396 LATE PREFETCHES: 368257 DROPPED PREFETCHES: 0
L1D PREFETCHES SAME FILL-ORIGIN LEVEL: 1088256 DIFFERENT FILL-ORIGIN LEVEL: 0
L1D AVERAGE MISS LATENCY: 7.93934e+06 cycles
L1D RQ	ACCESS:    8951665	FORWARD:          0	MERGED:    3568577	TO_CACHE:    5318192
L1D WQ	ACCESS:     459661	FORWARD:      72421	MERGED:      16541	TO_CACHE:     443120
L1D PQ	ACCESS:    4706878	FORWARD:          0	MERGED:    2316596	TO_CACHE:    2382757

L1D UNIQUE REGIONS ACCESSED: 0
L1D REGIONS CONFLICTS: 0
L1D Cross Page Prefetch Requests: 0
L1D Same Page Prefetch Requests: 11004461
L1D ROI Sum of L1D PQ occupancy: 32193409
L1D PREFETCHES PUSHED FROM L2C: 0
L1I TOTAL     ACCESS:    4095645  HIT:    4095645  MISS:          0  HIT %:        100  MISS %:          0   MPKI: 0
L1I LOAD      ACCESS:    4095645  HIT:    4095645  MISS:          0  HIT %:        100  MISS %:          0   MPKI: 0
L1I PREFETCH  REQUESTED:          0  ISSUED:          0  USEFUL:          0  USELESS:          0
L1I USEFUL LOAD PREFETCHES:          0 PREFETCH ISSUED TO LOWER LEVEL:          0  ACCURACY: -nan
L1I TIMELY PREFETCHES:          0 LATE PREFETCHES: 0 DROPPED PREFETCHES: 0
L1I PREFETCHES SAME FILL-ORIGIN LEVEL: 0 DIFFERENT FILL-ORIGIN LEVEL: 0
L1I AVERAGE MISS LATENCY: -nan cycles
L1I RQ	ACCESS:    5497405	FORWARD:          0	MERGED:    1401761	TO_CACHE:    4095644

BTB TOTAL     ACCESS:    7381233  HIT:    7359090  MISS:      22143  HIT %:       99.7  MISS %:   0.299991   MPKI: 0.88572
BTB BRANCH_DIRECT_JUMP	ACCESS:     954613  HIT:     954578  MISS:         35
BTB BRANCH_INDIRECT	ACCESS:          0  HIT:          0  MISS:          0
BTB BRANCH_CONDITIONAL	ACCESS:    6254608  HIT:    6254529  MISS:         79
BTB BRANCH_DIRECT_CALL	ACCESS:      79755  HIT:      79739  MISS:         16
BTB BRANCH_INDIRECT_CALL	ACCESS:       6250  HIT:       6242  MISS:          8
BTB BRANCH_RETURN	ACCESS:      86007  HIT:      64002  MISS:      22005
BTB BRANCH_OTHER ACCESS:          0  HIT:          0  MISS:          0

L2C TOTAL     ACCESS:    4001805  HIT:     511975  MISS:    3489830  HIT %:    12.7936  MISS %:    87.2064   MPKI: 139.593
L2C LOAD      ACCESS:    2796865  HIT:     410781  MISS:    2386084  HIT %:    14.6872  MISS %:    85.3128   MPKI: 95.4434
L2C DATA LOAD MPKI: 95.4434
L2C INSTRUCTION LOAD MPKI: 0
L2C RFO       ACCESS:       7731  HIT:        795  MISS:       6936  HIT %:    10.2833  MISS %:    89.7167   MPKI: 0.27744
L2C PREFETCH  ACCESS:    1088256  HIT:        535  MISS:    1087721  HIT %:  0.0491612  MISS %:    99.9508   MPKI: 43.5088
AGUS PREFETCH L1 MISS: 0
L2C DATA PREFETCH MPKI: 43.5088
L2C INSTRUCTION PREFETCH MPKI: 0
L2C WRITEBACK ACCESS:      79750  HIT:      79750  MISS:          0  HIT %:        100  MISS %:          0   MPKI: 0
L2C LOAD TRANSLATION ACCESS:      29203  HIT:      20114  MISS:       9089  HIT %:    68.8765  MISS %:    31.1235   MPKI: 0.36356
L2C PREFETCH  REQUESTED:          0  ISSUED:          0  USEFUL:       1484  USELESS:    1086658
L2C USEFUL LOAD PREFETCHES:       1484 PREFETCH ISSUED TO LOWER LEVEL:    1087721  ACCURACY: 0.136432
L2C TIMELY PREFETCHES:       1484 LATE PREFETCHES: 0 DROPPED PREFETCHES: 0
L2C PREFETCHES SAME FILL-ORIGIN LEVEL: 0 DIFFERENT FILL-ORIGIN LEVEL: 0
L2C AVERAGE MISS LATENCY: 110.705 cycles
L2C RQ	ACCESS:    2833803	FORWARD:          0	MERGED:          0	TO_CACHE:    2833799
L2C WQ	ACCESS:      79750	FORWARD:          4	MERGED:          0	TO_CACHE:      79750
L2C PQ	ACCESS:    1088256	FORWARD:          0	MERGED:          0	TO_CACHE:    1088256

L2C Instructions Evicting Data 0
L2C Translations Evicting Data 9062
L2C Data Evicting Data 3471700
L2C Instructions Evicting Instructions 0
L2C Translations Evicting Instructions 0
L2C Data Evicting Instructions 0
L2C Instructions Evicting Translations 0
L2C Translations Evicting Translations 27
L2C Data Evicting Translations 9041
L2C Dense regions hint from L2: 0
PSCL5 TOTAL     ACCESS:      29040  HIT:      29040  MISS:          0  HIT %:        100  MISS %:          0   MPKI: 0
PSCL5 LOAD TRANSLATION ACCESS:      29040  HIT:      29040  MISS:          0  HIT %:        100  MISS %:          0   MPKI: 0
PSCL5 PREFETCH  REQUESTED:          0  ISSUED:          0  USEFUL:          0  USELESS:          0
PSCL5 USEFUL LOAD PREFETCHES:          0 PREFETCH ISSUED TO LOWER LEVEL:          0  ACCURACY: -nan
PSCL5 TIMELY PREFETCHES:          0 LATE PREFETCHES: 0 DROPPED PREFETCHES: 0
PSCL5 PREFETCHES SAME FILL-ORIGIN LEVEL: 0 DIFFERENT FILL-ORIGIN LEVEL: 0

PSCL4 TOTAL     ACCESS:      29040  HIT:      29040  MISS:          0  HIT %:        100  MISS %:          0   MPKI: 0
PSCL4 LOAD TRANSLATION ACCESS:      29040  HIT:      29040  MISS:          0  HIT %:        100  MISS %:          0   MPKI: 0
PSCL4 PREFETCH  REQUESTED:          0  ISSUED:          0  USEFUL:          0  USELESS:          0
PSCL4 USEFUL LOAD PREFETCHES:          0 PREFETCH ISSUED TO LOWER LEVEL:          0  ACCURACY: -nan
PSCL4 TIMELY PREFETCHES:          0 LATE PREFETCHES: 0 DROPPED PREFETCHES: 0
PSCL4 PREFETCHES SAME FILL-ORIGIN LEVEL: 0 DIFFERENT FILL-ORIGIN LEVEL: 0

PSCL3 TOTAL     ACCESS:      29040  HIT:      29040  MISS:          0  HIT %:        100  MISS %:          0   MPKI: 0
PSCL3 LOAD TRANSLATION ACCESS:      29040  HIT:      29040  MISS:          0  HIT %:        100  MISS %:          0   MPKI: 0
PSCL3 PREFETCH  REQUESTED:          0  ISSUED:          0  USEFUL:          0  USELESS:          0
PSCL3 USEFUL LOAD PREFETCHES:          0 PREFETCH ISSUED TO LOWER LEVEL:          0  ACCURACY: -nan
PSCL3 TIMELY PREFETCHES:          0 LATE PREFETCHES: 0 DROPPED PREFETCHES: 0
PSCL3 PREFETCHES SAME FILL-ORIGIN LEVEL: 0 DIFFERENT FILL-ORIGIN LEVEL: 0

PSCL2 TOTAL     ACCESS:      29040  HIT:      28741  MISS:        299  HIT %:    98.9704  MISS %:    1.02961   MPKI: 0.01196
PSCL2 LOAD TRANSLATION ACCESS:      29040  HIT:      28741  MISS:        299  HIT %:    98.9704  MISS %:    1.02961   MPKI: 0.01196
PSCL2 PREFETCH  REQUESTED:          0  ISSUED:          0  USEFUL:          0  USELESS:          0
PSCL2 USEFUL LOAD PREFETCHES:          0 PREFETCH ISSUED TO LOWER LEVEL:          0  ACCURACY: -nan
PSCL2 TIMELY PREFETCHES:          0 LATE PREFETCHES: 0 DROPPED PREFETCHES: 0
PSCL2 PREFETCHES SAME FILL-ORIGIN LEVEL: 0 DIFFERENT FILL-ORIGIN LEVEL: 0

LLC TOTAL     ACCESS:    3565234  HIT:    1563763  MISS:    2001471  HIT %:    43.8614  MISS %:    56.1386   MPKI: 80.0588
LLC LOAD      ACCESS:    2386084  HIT:    1471814  MISS:     914270  HIT %:    61.6832  MISS %:    38.3168   MPKI: 36.5708
LLC RFO       ACCESS:       6936  HIT:       5840  MISS:       1096  HIT %:    84.1984  MISS %:    15.8016   MPKI: 0.04384
LLC PREFETCH  ACCESS:    1087721  HIT:       6898  MISS:    1080823  HIT %:    0.63417  MISS %:    99.3658   MPKI: 43.2329
AGUS PREFETCH L1 MISS: 0
LLC WRITEBACK ACCESS:      75404  HIT:      75254  MISS:        150  HIT %:    99.8011  MISS %:   0.198928   MPKI: 0.006
LLC LOAD TRANSLATION ACCESS:       9089  HIT:       3957  MISS:       5132  HIT %:    43.5361  MISS %:    56.4639   MPKI: 0.20528
LLC PREFETCH  REQUESTED:          0  ISSUED:          0  USEFUL:        652  USELESS:    1082235
LLC USEFUL LOAD PREFETCHES:        652 PREFETCH ISSUED TO LOWER LEVEL:    1080823  ACCURACY: 0.0603244
LLC TIMELY PREFETCHES:        652 LATE PREFETCHES: 0 DROPPED PREFETCHES: 0
LLC PREFETCHES SAME FILL-ORIGIN LEVEL: 0 DIFFERENT FILL-ORIGIN LEVEL: 0
LLC AVERAGE MISS LATENCY: 140.054 cycles
LLC RQ	ACCESS:    2402109	FORWARD:          0	MERGED:          0	TO_CACHE:    2402109
LLC WQ	ACCESS:      75404	FORWARD:          0	MERGED:          0	TO_CACHE:      75404
LLC PQ	ACCESS:    1087721	FORWARD:          0	MERGED:          0	TO_CACHE:    1087721

LLC Dense regions hint to LLC: 0

RAW hits: 62662
Loads Generated: 9014327
Loads sent to L1D: 8951665
Stores Generated: 459660
Stores sent to L1D: 459661
Major fault: 0 Minor fault: 44120
Allocated PAGES: 44120
CPU 0 L1D IP-based stride prefetcher final stats
Degree: 5

DRAM Statistics
 CHANNEL 0
 RQ ROW_BUFFER_HIT:     934439  ROW_BUFFER_MISS:    1066872
 DBUS_CONGESTED:        201
 WQ ROW_BUFFER_HIT:       8515  ROW_BUFFER_MISS:      31307  FULL:          0

 AVG_CONGESTED_CYCLE: 4
 All warmup complete: 2
Channel 0 Bank busy for read cycles: 0
Channel 0 Bank busy for write cycles: 0
Channel 0
Rank 0
0banks busy for read cycles: 58109607
0banks busy for write cycles: 15742
1banks busy for read cycles: 37094629
1banks busy for write cycles: 2801908
2banks busy for read cycles: 18774618
2banks busy for write cycles: 606403
3banks busy for read cycles: 12620691
3banks busy for write cycles: 251228
4banks busy for read cycles: 7827437
4banks busy for write cycles: 159813
5banks busy for read cycles: 4221411
5banks busy for write cycles: 117569
6banks busy for read cycles: 3977109
6banks busy for write cycles: 104286
7banks busy for read cycles: 1428696
7banks busy for write cycles: 115249
8banks busy for read cycles: 998492
8banks busy for write cycles: 171941

CPU 0 Branch Prediction Accuracy: 96.3142% MPKI: 11.2642 Average ROB Occupancy at Mispredict: 46.096
Branch types
NOT_BRANCH: 17359361 69.4374%
BRANCH_DIRECT_JUMP: 954613 3.81845%
BRANCH_INDIRECT: 0 0%
BRANCH_CONDITIONAL: 6513665 26.0547%
BRANCH_DIRECT_CALL: 79755 0.31902%
BRANCH_INDIRECT_CALL: 6250 0.025%
BRANCH_RETURN: 86007 0.344028%
BRANCH_OTHER: 0 0%

DRAM PAGES: 1048576
Allocated PAGES: 44120
