
*** ChampSim Multicore Out-of-Order Simulator ***

Warmup Instructions: 25000000
Simulation Instructions: 25000000
Number of CPUs: 1
LLC sets: 2048
LLC ways: 16
Off-chip DRAM Size: 4096 MB Channels: 1 Width: 64-bit Data Rate: 6400 MT/s
CPU 0 runs ../traces/trace3.champsimtrace.xz
.xz
CPU 0 Bimodal branch predictor
BTB has LRU replacement policy
ITLB has LRU replacement policy
DTLB has LRU replacement policy
STLB has LRU replacement policy
L1I has LRU replacement policy
CPU 0 L1D Complex-Stride prefetcher
L1D has LRU replacement policy
L2C has LRU replacement policy
LLC has LRU replacement policy
Heartbeat CPU 0 instructions: 10000001 cycles: 3773791 heartbeat IPC: 2.64986 cumulative IPC: 2.64986 (Simulation time: 0 hr 0 min 23 sec) 
Heartbeat CPU 0 instructions: 20000000 cycles: 7519439 heartbeat IPC: 2.66976 cumulative IPC: 2.65977 (Simulation time: 0 hr 0 min 40 sec) 

Warmup complete CPU 0 instructions: 25000004 cycles: 9423064 (Simulation time: 0 hr 0 min 48 sec) 

Heartbeat CPU 0 instructions: 30000001 cycles: 39151816 heartbeat IPC: 0.316132 cumulative IPC: 0.168187 (Simulation time: 0 hr 1 min 7 sec) 
Heartbeat CPU 0 instructions: 40000001 cycles: 95830295 heartbeat IPC: 0.176434 cumulative IPC: 0.173597 (Simulation time: 0 hr 1 min 41 sec) 
Heartbeat CPU 0 instructions: 50000000 cycles: 155722029 heartbeat IPC: 0.166968 cumulative IPC: 0.170883 (Simulation time: 0 hr 2 min 16 sec) 
Finished CPU 0 instructions: 25000000 cycles: 146298967 cumulative IPC: 0.170883 (Simulation time: 0 hr 2 min 16 sec) 

ChampSim completed all CPUs

Region of Interest Statistics

CPU 0 cumulative IPC: 0.170883 instructions: 25000000 cycles: 146298967
ITLB TOTAL     ACCESS:    4040727  HIT:    4040727  MISS:          0  HIT %:        100  MISS %:          0   MPKI: 0
ITLB LOAD TRANSLATION ACCESS:    4040727  HIT:    4040727  MISS:          0  HIT %:        100  MISS %:          0   MPKI: 0
ITLB PREFETCH  REQUESTED:          0  ISSUED:          0  USEFUL:          0  USELESS:          0
ITLB USEFUL LOAD PREFETCHES:          0 PREFETCH ISSUED TO LOWER LEVEL:          0  ACCURACY: -nan
ITLB TIMELY PREFETCHES:          0 LATE PREFETCHES: 0 DROPPED PREFETCHES: 0
ITLB PREFETCHES SAME FILL-ORIGIN LEVEL: 0 DIFFERENT FILL-ORIGIN LEVEL: 0
ITLB AVERAGE MISS LATENCY: -nan cycles
ITLB RQ	ACCESS:    4091991	FORWARD:          0	MERGED:      51265	TO_CACHE:    4040726

DTLB TOTAL     ACCESS:    5221041  HIT:    3017259  MISS:    2203782  HIT %:    57.7904  MISS %:    42.2096   MPKI: 88.1513
DTLB LOAD TRANSLATION ACCESS:    5221041  HIT:    3017259  MISS:    2203782  HIT %:    57.7904  MISS %:    42.2096   MPKI: 88.1513
DTLB PREFETCH  REQUESTED:          0  ISSUED:          0  USEFUL:          0  USELESS:          0
DTLB USEFUL LOAD PREFETCHES:          0 PREFETCH ISSUED TO LOWER LEVEL:          0  ACCURACY: -nan
DTLB TIMELY PREFETCHES:          0 LATE PREFETCHES: 0 DROPPED PREFETCHES: 0
DTLB PREFETCHES SAME FILL-ORIGIN LEVEL: 0 DIFFERENT FILL-ORIGIN LEVEL: 0
DTLB AVERAGE MISS LATENCY: 11.2765 cycles
DTLB RQ	ACCESS:    5749714	FORWARD:          0	MERGED:     493939	TO_CACHE:    5255775

STLB TOTAL     ACCESS:    3812266  HIT:    3783254  MISS:      29012  HIT %:     99.239  MISS %:   0.761017   MPKI: 1.16048
STLB LOAD TRANSLATION ACCESS:    2203782  HIT:    2174770  MISS:      29012  HIT %:    98.6835  MISS %:    1.31646   MPKI: 1.16048
STLB TRANSLATION FROM L1D PREFETCHER ACCESS:    1608484  HIT:    1608484  MISS:          0  HIT %:        100  MISS %:          0   MPKI: 0
STLB PREFETCH  REQUESTED:          0  ISSUED:          0  USEFUL:          0  USELESS:          0
STLB USEFUL LOAD PREFETCHES:          0 PREFETCH ISSUED TO LOWER LEVEL:          0  ACCURACY: -nan
STLB TIMELY PREFETCHES:          0 LATE PREFETCHES: 0 DROPPED PREFETCHES: 0
STLB PREFETCHES SAME FILL-ORIGIN LEVEL: 0 DIFFERENT FILL-ORIGIN LEVEL: 0
STLB AVERAGE MISS LATENCY: 138.159 cycles
STLB RQ	ACCESS:    8392154	FORWARD:          0	MERGED:    4579888	TO_CACHE:    3812266

STLB Hit, L1D data hit: 0
STLB Hit, L2C data hit: 0
STLB Hit, LLC data hit: 0
STLB Hit, LLC data miss: 0
STLB STLB hints to L2: 0
L1D TOTAL     ACCESS:   10340451  HIT:    5845923  MISS:    4494528  HIT %:    56.5345  MISS %:    43.4655   MPKI: 179.781
L1D LOAD      ACCESS:    5266008  HIT:    2404601  MISS:    2861407  HIT %:    45.6627  MISS %:    54.3373   MPKI: 114.456
L1D RFO       ACCESS:     425435  HIT:     418079  MISS:       7356  HIT %:    98.2709  MISS %:    1.72905   MPKI: 0.29424
L1D PREFETCH  ACCESS:    4649008  HIT:    3023243  MISS:    1625765  HIT %:    65.0299  MISS %:    34.9701   MPKI: 65.0306
AGUS PREFETCH L1 MISS: 0
L1D PREFETCH  REQUESTED:   16577763  ISSUED:   16437085  USEFUL:    1023367  USELESS:     602354
L1D USEFUL LOAD PREFETCHES:    1023367 PREFETCH ISSUED TO LOWER LEVEL:    1863617  ACCURACY: 54.9129
L1D TIMELY PREFETCHES:    1023367 LATE PREFETCHES: 237824 DROPPED PREFETCHES: 0
L1D PREFETCHES SAME FILL-ORIGIN LEVEL: 1863617 DIFFERENT FILL-ORIGIN LEVEL: 0
L1D AVERAGE MISS LATENCY: 4.39e+06 cycles
L1D RQ	ACCESS:    8951819	FORWARD:          0	MERGED:    3580209	TO_CACHE:    5306542
L1D WQ	ACCESS:     459661	FORWARD:      74036	MERGED:      16489	TO_CACHE:     443172
L1D PQ	ACCESS:   10248713	FORWARD:          0	MERGED:    4051373	TO_CACHE:    6188372

L1D UNIQUE REGIONS ACCESSED: 0
L1D REGIONS CONFLICTS: 0
L1D Cross Page Prefetch Requests: 0
L1D Same Page Prefetch Requests: 10248713
L1D ROI Sum of L1D PQ occupancy: 109336861
L1D PREFETCHES PUSHED FROM L2C: 0
L1I TOTAL     ACCESS:    4091992  HIT:    4091992  MISS:          0  HIT %:        100  MISS %:          0   MPKI: 0
L1I LOAD      ACCESS:    4091992  HIT:    4091992  MISS:          0  HIT %:        100  MISS %:          0   MPKI: 0
L1I PREFETCH  REQUESTED:          0  ISSUED:          0  USEFUL:          0  USELESS:          0
L1I USEFUL LOAD PREFETCHES:          0 PREFETCH ISSUED TO LOWER LEVEL:          0  ACCURACY: -nan
L1I TIMELY PREFETCHES:          0 LATE PREFETCHES: 0 DROPPED PREFETCHES: 0
L1I PREFETCHES SAME FILL-ORIGIN LEVEL: 0 DIFFERENT FILL-ORIGIN LEVEL: 0
L1I AVERAGE MISS LATENCY: -nan cycles
L1I RQ	ACCESS:    5492581	FORWARD:          0	MERGED:    1400590	TO_CACHE:    4091991

BTB TOTAL     ACCESS:    7381233  HIT:    7359090  MISS:      22143  HIT %:       99.7  MISS %:   0.299991   MPKI: 0.88572
BTB BRANCH_DIRECT_JUMP	ACCESS:     954613  HIT:     954578  MISS:         35
BTB BRANCH_INDIRECT	ACCESS:          0  HIT:          0  MISS:          0
BTB BRANCH_CONDITIONAL	ACCESS:    6254608  HIT:    6254529  MISS:         79
BTB BRANCH_DIRECT_CALL	ACCESS:      79755  HIT:      79739  MISS:         16
BTB BRANCH_INDIRECT_CALL	ACCESS:       6250  HIT:       6242  MISS:          8
BTB BRANCH_RETURN	ACCESS:      86007  HIT:      64002  MISS:      22005
BTB BRANCH_OTHER ACCESS:          0  HIT:          0  MISS:          0

L2C TOTAL     ACCESS:    4603945  HIT:     533800  MISS:    4070145  HIT %:    11.5944  MISS %:    88.4056   MPKI: 162.806
L2C LOAD      ACCESS:    2623575  HIT:     374198  MISS:    2249377  HIT %:    14.2629  MISS %:    85.7371   MPKI: 89.9751
L2C DATA LOAD MPKI: 89.9751
L2C INSTRUCTION LOAD MPKI: 0
L2C RFO       ACCESS:       7328  HIT:        551  MISS:       6777  HIT %:     7.5191  MISS %:    92.4809   MPKI: 0.27108
L2C PREFETCH  ACCESS:    1863614  HIT:      58791  MISS:    1804823  HIT %:    3.15468  MISS %:    96.8453   MPKI: 72.1929
AGUS PREFETCH L1 MISS: 0
L2C DATA PREFETCH MPKI: 72.1929
L2C INSTRUCTION PREFETCH MPKI: 0
L2C WRITEBACK ACCESS:      80252  HIT:      80252  MISS:          0  HIT %:        100  MISS %:          0   MPKI: 0
L2C LOAD TRANSLATION ACCESS:      29176  HIT:      20008  MISS:       9168  HIT %:    68.5769  MISS %:    31.4231   MPKI: 0.36672
L2C PREFETCH  REQUESTED:          0  ISSUED:          0  USEFUL:      20768  USELESS:    1780769
L2C USEFUL LOAD PREFETCHES:      20768 PREFETCH ISSUED TO LOWER LEVEL:    1804823  ACCURACY: 1.15069
L2C TIMELY PREFETCHES:      20768 LATE PREFETCHES: 0 DROPPED PREFETCHES: 0
L2C PREFETCHES SAME FILL-ORIGIN LEVEL: 0 DIFFERENT FILL-ORIGIN LEVEL: 0
L2C AVERAGE MISS LATENCY: 129.295 cycles
L2C RQ	ACCESS:    2660087	FORWARD:          0	MERGED:          0	TO_CACHE:    2660079
L2C WQ	ACCESS:      80252	FORWARD:         11	MERGED:          0	TO_CACHE:      80252
L2C PQ	ACCESS:    1863617	FORWARD:          0	MERGED:          0	TO_CACHE:    1863614

L2C Instructions Evicting Data 0
L2C Translations Evicting Data 9152
L2C Data Evicting Data 4051843
L2C Instructions Evicting Instructions 0
L2C Translations Evicting Instructions 0
L2C Data Evicting Instructions 0
L2C Instructions Evicting Translations 0
L2C Translations Evicting Translations 16
L2C Data Evicting Translations 9134
L2C Dense regions hint from L2: 0
PSCL5 TOTAL     ACCESS:      29012  HIT:      29012  MISS:          0  HIT %:        100  MISS %:          0   MPKI: 0
PSCL5 LOAD TRANSLATION ACCESS:      29012  HIT:      29012  MISS:          0  HIT %:        100  MISS %:          0   MPKI: 0
PSCL5 PREFETCH  REQUESTED:          0  ISSUED:          0  USEFUL:          0  USELESS:          0
PSCL5 USEFUL LOAD PREFETCHES:          0 PREFETCH ISSUED TO LOWER LEVEL:          0  ACCURACY: -nan
PSCL5 TIMELY PREFETCHES:          0 LATE PREFETCHES: 0 DROPPED PREFETCHES: 0
PSCL5 PREFETCHES SAME FILL-ORIGIN LEVEL: 0 DIFFERENT FILL-ORIGIN LEVEL: 0

PSCL4 TOTAL     ACCESS:      29012  HIT:      29012  MISS:          0  HIT %:        100  MISS %:          0   MPKI: 0
PSCL4 LOAD TRANSLATION ACCESS:      29012  HIT:      29012  MISS:          0  HIT %:        100  MISS %:          0   MPKI: 0
PSCL4 PREFETCH  REQUESTED:          0  ISSUED:          0  USEFUL:          0  USELESS:          0
PSCL4 USEFUL LOAD PREFETCHES:          0 PREFETCH ISSUED TO LOWER LEVEL:          0  ACCURACY: -nan
PSCL4 TIMELY PREFETCHES:          0 LATE PREFETCHES: 0 DROPPED PREFETCHES: 0
PSCL4 PREFETCHES SAME FILL-ORIGIN LEVEL: 0 DIFFERENT FILL-ORIGIN LEVEL: 0

PSCL3 TOTAL     ACCESS:      29012  HIT:      29012  MISS:          0  HIT %:        100  MISS %:          0   MPKI: 0
PSCL3 LOAD TRANSLATION ACCESS:      29012  HIT:      29012  MISS:          0  HIT %:        100  MISS %:          0   MPKI: 0
PSCL3 PREFETCH  REQUESTED:          0  ISSUED:          0  USEFUL:          0  USELESS:          0
PSCL3 USEFUL LOAD PREFETCHES:          0 PREFETCH ISSUED TO LOWER LEVEL:          0  ACCURACY: -nan
PSCL3 TIMELY PREFETCHES:          0 LATE PREFETCHES: 0 DROPPED PREFETCHES: 0
PSCL3 PREFETCHES SAME FILL-ORIGIN LEVEL: 0 DIFFERENT FILL-ORIGIN LEVEL: 0

PSCL2 TOTAL     ACCESS:      29012  HIT:      28712  MISS:        300  HIT %:    98.9659  MISS %:    1.03405   MPKI: 0.012
PSCL2 LOAD TRANSLATION ACCESS:      29012  HIT:      28712  MISS:        300  HIT %:    98.9659  MISS %:    1.03405   MPKI: 0.012
PSCL2 PREFETCH  REQUESTED:          0  ISSUED:          0  USEFUL:          0  USELESS:          0
PSCL2 USEFUL LOAD PREFETCHES:          0 PREFETCH ISSUED TO LOWER LEVEL:          0  ACCURACY: -nan
PSCL2 TIMELY PREFETCHES:          0 LATE PREFETCHES: 0 DROPPED PREFETCHES: 0
PSCL2 PREFETCHES SAME FILL-ORIGIN LEVEL: 0 DIFFERENT FILL-ORIGIN LEVEL: 0

LLC TOTAL     ACCESS:    4146710  HIT:    1772362  MISS:    2374348  HIT %:    42.7414  MISS %:    57.2586   MPKI: 94.9739
LLC LOAD      ACCESS:    2249377  HIT:    1489360  MISS:     760017  HIT %:    66.2121  MISS %:    33.7879   MPKI: 30.4007
LLC RFO       ACCESS:       6777  HIT:       5568  MISS:       1209  HIT %:    82.1602  MISS %:    17.8398   MPKI: 0.04836
LLC PREFETCH  ACCESS:    1804823  HIT:     197224  MISS:    1607599  HIT %:    10.9276  MISS %:    89.0724   MPKI: 64.304
AGUS PREFETCH L1 MISS: 0
LLC WRITEBACK ACCESS:      76565  HIT:      76482  MISS:         83  HIT %:    99.8916  MISS %:   0.108405   MPKI: 0.00332
LLC LOAD TRANSLATION ACCESS:       9168  HIT:       3728  MISS:       5440  HIT %:    40.6632  MISS %:    59.3368   MPKI: 0.2176
LLC PREFETCH  REQUESTED:          0  ISSUED:          0  USEFUL:      25012  USELESS:    1564894
LLC USEFUL LOAD PREFETCHES:      25012 PREFETCH ISSUED TO LOWER LEVEL:    1607599  ACCURACY: 1.55586
LLC TIMELY PREFETCHES:      25012 LATE PREFETCHES: 0 DROPPED PREFETCHES: 0
LLC PREFETCHES SAME FILL-ORIGIN LEVEL: 0 DIFFERENT FILL-ORIGIN LEVEL: 0
LLC AVERAGE MISS LATENCY: 169.588 cycles
LLC RQ	ACCESS:    2265322	FORWARD:          0	MERGED:          0	TO_CACHE:    2265322
LLC WQ	ACCESS:      76565	FORWARD:          0	MERGED:          0	TO_CACHE:      76565
LLC PQ	ACCESS:    1804823	FORWARD:          0	MERGED:          0	TO_CACHE:    1804823

LLC Dense regions hint to LLC: 0

RAW hits: 62508
Loads Generated: 9014327
Loads sent to L1D: 8951819
Stores Generated: 459660
Stores sent to L1D: 459661
Major fault: 0 Minor fault: 44120
Allocated PAGES: 44120
CPU 0 L1D optimized prefetcher final stats
Degree: 5

DRAM Statistics
 CHANNEL 0
 RQ ROW_BUFFER_HIT:     830806  ROW_BUFFER_MISS:    1543362
 DBUS_CONGESTED:        259
 WQ ROW_BUFFER_HIT:      10170  ROW_BUFFER_MISS:      30867  FULL:          0

 AVG_CONGESTED_CYCLE: 4
 All warmup complete: 2
Channel 0 Bank busy for read cycles: 0
Channel 0 Bank busy for write cycles: 0
Channel 0
Rank 0
0banks busy for read cycles: 47782546
0banks busy for write cycles: 14183
1banks busy for read cycles: 33326442
1banks busy for write cycles: 2643641
2banks busy for read cycles: 17855472
2banks busy for write cycles: 637988
3banks busy for read cycles: 11452689
3banks busy for write cycles: 266345
4banks busy for read cycles: 9499104
4banks busy for write cycles: 166771
5banks busy for read cycles: 8648560
5banks busy for write cycles: 122031
6banks busy for read cycles: 7139434
6banks busy for write cycles: 110203
7banks busy for read cycles: 4210234
7banks busy for write cycles: 143061
8banks busy for read cycles: 2018515
8banks busy for write cycles: 261749

CPU 0 Branch Prediction Accuracy: 96.3142% MPKI: 11.2642 Average ROB Occupancy at Mispredict: 45.3992
Branch types
NOT_BRANCH: 17359361 69.4374%
BRANCH_DIRECT_JUMP: 954613 3.81845%
BRANCH_INDIRECT: 0 0%
BRANCH_CONDITIONAL: 6513665 26.0547%
BRANCH_DIRECT_CALL: 79755 0.31902%
BRANCH_INDIRECT_CALL: 6250 0.025%
BRANCH_RETURN: 86007 0.344028%
BRANCH_OTHER: 0 0%

DRAM PAGES: 1048576
Allocated PAGES: 44120
