
*** ChampSim Multicore Out-of-Order Simulator ***

Warmup Instructions: 25000000
Simulation Instructions: 25000000
Number of CPUs: 1
LLC sets: 2048
LLC ways: 16
Off-chip DRAM Size: 4096 MB Channels: 1 Width: 64-bit Data Rate: 6400 MT/s
CPU 0 runs ../traces/trace2.champsimtrace.xz
.xz
CPU 0 Bimodal branch predictor
BTB has LRU replacement policy
ITLB has LRU replacement policy
DTLB has LRU replacement policy
STLB has LRU replacement policy
L1I has LRU replacement policy
CPU 0 L1D Complex-Stride prefetcher
L1D has LRU replacement policy
L2C has LRU replacement policy
LLC has LRU replacement policy
Heartbeat CPU 0 instructions: 10000002 cycles: 3798779 heartbeat IPC: 2.63243 cumulative IPC: 2.63243 (Simulation time: 0 hr 0 min 20 sec) 
Heartbeat CPU 0 instructions: 20000001 cycles: 7599895 heartbeat IPC: 2.63081 cumulative IPC: 2.63162 (Simulation time: 0 hr 0 min 34 sec) 

Warmup complete CPU 0 instructions: 25000001 cycles: 9499600 (Simulation time: 0 hr 0 min 41 sec) 

Heartbeat CPU 0 instructions: 30000001 cycles: 23192569 heartbeat IPC: 0.641327 cumulative IPC: 0.365151 (Simulation time: 0 hr 0 min 54 sec) 
Heartbeat CPU 0 instructions: 40000002 cycles: 50268369 heartbeat IPC: 0.369334 cumulative IPC: 0.367929 (Simulation time: 0 hr 1 min 23 sec) 
Heartbeat CPU 0 instructions: 50000000 cycles: 76881952 heartbeat IPC: 0.375748 cumulative IPC: 0.371017 (Simulation time: 0 hr 1 min 52 sec) 
Finished CPU 0 instructions: 25000000 cycles: 67382374 cumulative IPC: 0.371017 (Simulation time: 0 hr 1 min 52 sec) 

ChampSim completed all CPUs

Region of Interest Statistics

CPU 0 cumulative IPC: 0.371017 instructions: 25000000 cycles: 67382374
ITLB TOTAL     ACCESS:    4559261  HIT:    4559261  MISS:          0  HIT %:        100  MISS %:          0   MPKI: 0
ITLB LOAD TRANSLATION ACCESS:    4559261  HIT:    4559261  MISS:          0  HIT %:        100  MISS %:          0   MPKI: 0
ITLB PREFETCH  REQUESTED:          0  ISSUED:          0  USEFUL:          0  USELESS:          0
ITLB USEFUL LOAD PREFETCHES:          0 PREFETCH ISSUED TO LOWER LEVEL:          0  ACCURACY: -nan
ITLB TIMELY PREFETCHES:          0 LATE PREFETCHES: 0 DROPPED PREFETCHES: 0
ITLB PREFETCHES SAME FILL-ORIGIN LEVEL: 0 DIFFERENT FILL-ORIGIN LEVEL: 0
ITLB AVERAGE MISS LATENCY: -nan cycles
ITLB RQ	ACCESS:    4644674	FORWARD:          0	MERGED:      85413	TO_CACHE:    4559261

DTLB TOTAL     ACCESS:    3869345  HIT:    3835331  MISS:      34014  HIT %:    99.1209  MISS %:   0.879064   MPKI: 1.36056
DTLB LOAD TRANSLATION ACCESS:    3869345  HIT:    3835331  MISS:      34014  HIT %:    99.1209  MISS %:   0.879064   MPKI: 1.36056
DTLB PREFETCH  REQUESTED:          0  ISSUED:          0  USEFUL:          0  USELESS:          0
DTLB USEFUL LOAD PREFETCHES:          0 PREFETCH ISSUED TO LOWER LEVEL:          0  ACCURACY: -nan
DTLB TIMELY PREFETCHES:          0 LATE PREFETCHES: 0 DROPPED PREFETCHES: 0
DTLB PREFETCHES SAME FILL-ORIGIN LEVEL: 0 DIFFERENT FILL-ORIGIN LEVEL: 0
DTLB AVERAGE MISS LATENCY: 107.766 cycles
DTLB RQ	ACCESS:    4554028	FORWARD:          0	MERGED:     684552	TO_CACHE:    3869476

STLB TOTAL     ACCESS:    3046959  HIT:    3014298  MISS:      32661  HIT %:    98.9281  MISS %:    1.07192   MPKI: 1.30644
STLB LOAD TRANSLATION ACCESS:      34014  HIT:       1361  MISS:      32653  HIT %:    4.00129  MISS %:    95.9987   MPKI: 1.30612
STLB TRANSLATION FROM L1D PREFETCHER ACCESS:    3012945  HIT:    3012937  MISS:          8  HIT %:    99.9997  MISS %: 0.000265521   MPKI: 0.00032
STLB PREFETCH  REQUESTED:          0  ISSUED:          0  USEFUL:          8  USELESS:          0
STLB USEFUL LOAD PREFETCHES:          8 PREFETCH ISSUED TO LOWER LEVEL:          0  ACCURACY: inf
STLB TIMELY PREFETCHES:          8 LATE PREFETCHES: 0 DROPPED PREFETCHES: 0
STLB PREFETCHES SAME FILL-ORIGIN LEVEL: 0 DIFFERENT FILL-ORIGIN LEVEL: 0
STLB AVERAGE MISS LATENCY: 102.949 cycles
STLB RQ	ACCESS:   14547010	FORWARD:          0	MERGED:   11500050	TO_CACHE:    3046960

STLB Hit, L1D data hit: 0
STLB Hit, L2C data hit: 0
STLB Hit, LLC data hit: 0
STLB Hit, LLC data miss: 0
STLB STLB hints to L2: 0
L1D TOTAL     ACCESS:   11289640  HIT:    9457599  MISS:    1832041  HIT %:    83.7724  MISS %:    16.2276   MPKI: 73.2816
L1D LOAD      ACCESS:    4206541  HIT:    3927448  MISS:     279093  HIT %:    93.3653  MISS %:    6.63474   MPKI: 11.1637
L1D RFO       ACCESS:     333322  HIT:     333308  MISS:         14  HIT %:    99.9958  MISS %: 0.00420014   MPKI: 0.00056
L1D PREFETCH  ACCESS:    6749777  HIT:    5196843  MISS:    1552934  HIT %:    76.9928  MISS %:    23.0072   MPKI: 62.1174
AGUS PREFETCH L1 MISS: 0
L1D PREFETCH  REQUESTED:   34639127  ISSUED:   34609999  USEFUL:    1475617  USELESS:      77225
L1D USEFUL LOAD PREFETCHES:    1475617 PREFETCH ISSUED TO LOWER LEVEL:    1788629  ACCURACY: 82.4999
L1D TIMELY PREFETCHES:    1475617 LATE PREFETCHES: 235694 DROPPED PREFETCHES: 0
L1D PREFETCHES SAME FILL-ORIGIN LEVEL: 1788629 DIFFERENT FILL-ORIGIN LEVEL: 0
L1D AVERAGE MISS LATENCY: 5.6079e+06 cycles
L1D RQ	ACCESS:    8972959	FORWARD:          0	MERGED:    4750700	TO_CACHE:    4220702
L1D WQ	ACCESS:     370377	FORWARD:       1557	MERGED:      37051	TO_CACHE:     333326
L1D PQ	ACCESS:   20097003	FORWARD:          0	MERGED:    5584007	TO_CACHE:   14512996

L1D UNIQUE REGIONS ACCESSED: 0
L1D REGIONS CONFLICTS: 0
L1D Cross Page Prefetch Requests: 0
L1D Same Page Prefetch Requests: 20097003
L1D ROI Sum of L1D PQ occupancy: 203837050
L1D PREFETCHES PUSHED FROM L2C: 0
L1I TOTAL     ACCESS:    4644673  HIT:    4644673  MISS:          0  HIT %:        100  MISS %:          0   MPKI: 0
L1I LOAD      ACCESS:    4644673  HIT:    4644673  MISS:          0  HIT %:        100  MISS %:          0   MPKI: 0
L1I PREFETCH  REQUESTED:          0  ISSUED:          0  USEFUL:          0  USELESS:          0
L1I USEFUL LOAD PREFETCHES:          0 PREFETCH ISSUED TO LOWER LEVEL:          0  ACCURACY: -nan
L1I TIMELY PREFETCHES:          0 LATE PREFETCHES: 0 DROPPED PREFETCHES: 0
L1I PREFETCHES SAME FILL-ORIGIN LEVEL: 0 DIFFERENT FILL-ORIGIN LEVEL: 0
L1I AVERAGE MISS LATENCY: -nan cycles
L1I RQ	ACCESS:    6970593	FORWARD:          0	MERGED:    2325919	TO_CACHE:    4644674

BTB TOTAL     ACCESS:    5953193  HIT:    5953095  MISS:         98  HIT %:    99.9984  MISS %: 0.00164618   MPKI: 0.00392
BTB BRANCH_DIRECT_JUMP	ACCESS:      85874  HIT:      85848  MISS:         26
BTB BRANCH_INDIRECT	ACCESS:          0  HIT:          0  MISS:          0
BTB BRANCH_CONDITIONAL	ACCESS:    5783213  HIT:    5783164  MISS:         49
BTB BRANCH_DIRECT_CALL	ACCESS:      42053  HIT:      42043  MISS:         10
BTB BRANCH_INDIRECT_CALL	ACCESS:          0  HIT:          0  MISS:          0
BTB BRANCH_RETURN	ACCESS:      42053  HIT:      42040  MISS:         13
BTB BRANCH_OTHER ACCESS:          0  HIT:          0  MISS:          0

L2C TOTAL     ACCESS:    1868143  HIT:      66963  MISS:    1801180  HIT %:    3.58447  MISS %:    96.4155   MPKI: 72.0472
L2C LOAD      ACCESS:      43399  HIT:       5751  MISS:      37648  HIT %:    13.2515  MISS %:    86.7485   MPKI: 1.50592
L2C DATA LOAD MPKI: 1.50592
L2C INSTRUCTION LOAD MPKI: 0
L2C RFO       ACCESS:         13  HIT:          0  MISS:         13  HIT %:          0  MISS %:        100   MPKI: 0.00052
L2C PREFETCH  ACCESS:    1788629  HIT:      32585  MISS:    1756044  HIT %:    1.82179  MISS %:    98.1782   MPKI: 70.2418
AGUS PREFETCH L1 MISS: 0
L2C DATA PREFETCH MPKI: 70.2418
L2C INSTRUCTION PREFETCH MPKI: 0
L2C WRITEBACK ACCESS:       2818  HIT:       2798  MISS:         20  HIT %:    99.2903  MISS %:   0.709723   MPKI: 0.0008
L2C LOAD TRANSLATION ACCESS:      33270  HIT:      25828  MISS:       7442  HIT %:    77.6315  MISS %:    22.3685   MPKI: 0.29768
L2C TRANSLATION FROM L1D PREFETCHER ACCESS:         14  HIT:          1  MISS:         13  HIT %:    7.14286  MISS %:    92.8571   MPKI: 0.00052
L2C PREFETCH  REQUESTED:          0  ISSUED:          0  USEFUL:       1707  USELESS:    1746389
L2C USEFUL LOAD PREFETCHES:       1707 PREFETCH ISSUED TO LOWER LEVEL:    1756044  ACCURACY: 0.0972071
L2C TIMELY PREFETCHES:       1707 LATE PREFETCHES: 0 DROPPED PREFETCHES: 0
L2C PREFETCHES SAME FILL-ORIGIN LEVEL: 0 DIFFERENT FILL-ORIGIN LEVEL: 0
L2C AVERAGE MISS LATENCY: 107.882 cycles
L2C RQ	ACCESS:      76695	FORWARD:          0	MERGED:          0	TO_CACHE:      76695
L2C WQ	ACCESS:       2818	FORWARD:          0	MERGED:          0	TO_CACHE:       2818
L2C PQ	ACCESS:    1788629	FORWARD:          0	MERGED:          0	TO_CACHE:    1788629

L2C Instructions Evicting Data 0
L2C Translations Evicting Data 7438
L2C Data Evicting Data 1786278
L2C Instructions Evicting Instructions 0
L2C Translations Evicting Instructions 0
L2C Data Evicting Instructions 0
L2C Instructions Evicting Translations 0
L2C Translations Evicting Translations 17
L2C Data Evicting Translations 7427
L2C Dense regions hint from L2: 0
PSCL5 TOTAL     ACCESS:      32661  HIT:      32661  MISS:          0  HIT %:        100  MISS %:          0   MPKI: 0
PSCL5 LOAD TRANSLATION ACCESS:      32653  HIT:      32653  MISS:          0  HIT %:        100  MISS %:          0   MPKI: 0
PSCL5 TRANSLATION FROM L1D PREFETCHER ACCESS:          8  HIT:          8  MISS:          0  HIT %:        100  MISS %:          0   MPKI: 0
PSCL5 PREFETCH  REQUESTED:          0  ISSUED:          0  USEFUL:          0  USELESS:          0
PSCL5 USEFUL LOAD PREFETCHES:          0 PREFETCH ISSUED TO LOWER LEVEL:          0  ACCURACY: -nan
PSCL5 TIMELY PREFETCHES:          0 LATE PREFETCHES: 0 DROPPED PREFETCHES: 0
PSCL5 PREFETCHES SAME FILL-ORIGIN LEVEL: 0 DIFFERENT FILL-ORIGIN LEVEL: 0

PSCL4 TOTAL     ACCESS:      32661  HIT:      32661  MISS:          0  HIT %:        100  MISS %:          0   MPKI: 0
PSCL4 LOAD TRANSLATION ACCESS:      32653  HIT:      32653  MISS:          0  HIT %:        100  MISS %:          0   MPKI: 0
PSCL4 TRANSLATION FROM L1D PREFETCHER ACCESS:          8  HIT:          8  MISS:          0  HIT %:        100  MISS %:          0   MPKI: 0
PSCL4 PREFETCH  REQUESTED:          0  ISSUED:          0  USEFUL:          0  USELESS:          0
PSCL4 USEFUL LOAD PREFETCHES:          0 PREFETCH ISSUED TO LOWER LEVEL:          0  ACCURACY: -nan
PSCL4 TIMELY PREFETCHES:          0 LATE PREFETCHES: 0 DROPPED PREFETCHES: 0
PSCL4 PREFETCHES SAME FILL-ORIGIN LEVEL: 0 DIFFERENT FILL-ORIGIN LEVEL: 0

PSCL3 TOTAL     ACCESS:      32478  HIT:      32475  MISS:          3  HIT %:    99.9908  MISS %: 0.00923702   MPKI: 0.00012
PSCL3 LOAD TRANSLATION ACCESS:      32471  HIT:      32468  MISS:          3  HIT %:    99.9908  MISS %: 0.00923901   MPKI: 0.00012
PSCL3 TRANSLATION FROM L1D PREFETCHER ACCESS:          7  HIT:          7  MISS:          0  HIT %:        100  MISS %:          0   MPKI: 0
PSCL3 PREFETCH  REQUESTED:          0  ISSUED:          0  USEFUL:          0  USELESS:          0
PSCL3 USEFUL LOAD PREFETCHES:          0 PREFETCH ISSUED TO LOWER LEVEL:          0  ACCURACY: -nan
PSCL3 TIMELY PREFETCHES:          0 LATE PREFETCHES: 0 DROPPED PREFETCHES: 0
PSCL3 PREFETCHES SAME FILL-ORIGIN LEVEL: 0 DIFFERENT FILL-ORIGIN LEVEL: 0

PSCL2 TOTAL     ACCESS:      32661  HIT:      31943  MISS:        718  HIT %:    97.8017  MISS %:    2.19834   MPKI: 0.02872
PSCL2 LOAD TRANSLATION ACCESS:      32658  HIT:      31940  MISS:        718  HIT %:    97.8015  MISS %:    2.19854   MPKI: 0.02872
PSCL2 TRANSLATION FROM L1D PREFETCHER ACCESS:          3  HIT:          3  MISS:          0  HIT %:        100  MISS %:          0   MPKI: 0
PSCL2 PREFETCH  REQUESTED:          0  ISSUED:          0  USEFUL:          0  USELESS:          0
PSCL2 USEFUL LOAD PREFETCHES:          0 PREFETCH ISSUED TO LOWER LEVEL:          0  ACCURACY: -nan
PSCL2 TIMELY PREFETCHES:          0 LATE PREFETCHES: 0 DROPPED PREFETCHES: 0
PSCL2 PREFETCHES SAME FILL-ORIGIN LEVEL: 0 DIFFERENT FILL-ORIGIN LEVEL: 0

LLC TOTAL     ACCESS:    1803936  HIT:       5742  MISS:    1798194  HIT %:   0.318304  MISS %:    99.6817   MPKI: 71.9278
LLC LOAD      ACCESS:      37648  HIT:        527  MISS:      37121  HIT %:    1.39981  MISS %:    98.6002   MPKI: 1.48484
LLC RFO       ACCESS:         13  HIT:          0  MISS:         13  HIT %:          0  MISS %:        100   MPKI: 0.00052
LLC PREFETCH  ACCESS:    1756044  HIT:       2122  MISS:    1753922  HIT %:    0.12084  MISS %:    99.8792   MPKI: 70.1569
AGUS PREFETCH L1 MISS: 0
LLC WRITEBACK ACCESS:       2776  HIT:       2765  MISS:         11  HIT %:    99.6037  MISS %:   0.396254   MPKI: 0.00044
LLC LOAD TRANSLATION ACCESS:       7442  HIT:        328  MISS:       7114  HIT %:    4.40742  MISS %:    95.5926   MPKI: 0.28456
LLC TRANSLATION FROM L1D PREFETCHER ACCESS:         13  HIT:          0  MISS:         13  HIT %:          0  MISS %:        100   MPKI: 0.00052
LLC PREFETCH  REQUESTED:          0  ISSUED:          0  USEFUL:         37  USELESS:    1722061
LLC USEFUL LOAD PREFETCHES:         37 PREFETCH ISSUED TO LOWER LEVEL:    1753922  ACCURACY: 0.00210956
LLC TIMELY PREFETCHES:         37 LATE PREFETCHES: 0 DROPPED PREFETCHES: 0
LLC PREFETCHES SAME FILL-ORIGIN LEVEL: 0 DIFFERENT FILL-ORIGIN LEVEL: 0
LLC AVERAGE MISS LATENCY: 77.9118 cycles
LLC RQ	ACCESS:      45115	FORWARD:          0	MERGED:          0	TO_CACHE:      45115
LLC WQ	ACCESS:       2776	FORWARD:          0	MERGED:          0	TO_CACHE:       2776
LLC PQ	ACCESS:    1756044	FORWARD:          0	MERGED:          0	TO_CACHE:    1756044

LLC Dense regions hint to LLC: 0

RAW hits: 4002
Loads Generated: 8976961
Loads sent to L1D: 8972959
Stores Generated: 370377
Stores sent to L1D: 370377
Major fault: 0 Minor fault: 48857
Allocated PAGES: 48857
CPU 0 L1D optimized prefetcher final stats
Degree: 5

DRAM Statistics
 CHANNEL 0
 RQ ROW_BUFFER_HIT:    1672847  ROW_BUFFER_MISS:     125335
 DBUS_CONGESTED:        368
 WQ ROW_BUFFER_HIT:        464  ROW_BUFFER_MISS:       2308  FULL:          0

 AVG_CONGESTED_CYCLE: 4
 All warmup complete: 2
Channel 0 Bank busy for read cycles: 0
Channel 0 Bank busy for write cycles: 0
Channel 0
Rank 0
0banks busy for read cycles: 16643189
0banks busy for write cycles: 1285
1banks busy for read cycles: 13985841
1banks busy for write cycles: 303978
2banks busy for read cycles: 27841697
2banks busy for write cycles: 140800
3banks busy for read cycles: 4985148
3banks busy for write cycles: 49474
4banks busy for read cycles: 940556
4banks busy for write cycles: 29604
5banks busy for read cycles: 728651
5banks busy for write cycles: 12245
6banks busy for read cycles: 1567614
6banks busy for write cycles: 5252
7banks busy for read cycles: 120947
7banks busy for write cycles: 3969
8banks busy for read cycles: 20424
8banks busy for write cycles: 1701

CPU 0 Branch Prediction Accuracy: 99.1323% MPKI: 3.09396 Average ROB Occupancy at Mispredict: 107.716
Branch types
NOT_BRANCH: 16085561 64.3422%
BRANCH_DIRECT_JUMP: 85874 0.343496%
BRANCH_INDIRECT: 0 0%
BRANCH_CONDITIONAL: 8744101 34.9764%
BRANCH_DIRECT_CALL: 42053 0.168212%
BRANCH_INDIRECT_CALL: 0 0%
BRANCH_RETURN: 42053 0.168212%
BRANCH_OTHER: 0 0%

DRAM PAGES: 1048576
Allocated PAGES: 48857
