
*** ChampSim Multicore Out-of-Order Simulator ***

Warmup Instructions: 25000000
Simulation Instructions: 25000000
Number of CPUs: 1
LLC sets: 2048
LLC ways: 16
Off-chip DRAM Size: 4096 MB Channels: 1 Width: 64-bit Data Rate: 6400 MT/s
CPU 0 runs ../traces/trace1.champsimtrace.xz
.xz
CPU 0 Bimodal branch predictor
BTB has LRU replacement policy
ITLB has LRU replacement policy
DTLB has LRU replacement policy
CPU 0 STLB arbitrary stride prefetcher
STLB has LRU replacement policy
L1I has LRU replacement policy
CPU 0 L1D Complex-Stride prefetcher
L1D has LRU replacement policy
L2C has LRU replacement policy
LLC has LRU replacement policy
Heartbeat CPU 0 instructions: 10000003 cycles: 2823725 heartbeat IPC: 3.54142 cumulative IPC: 3.54142 (Simulation time: 0 hr 0 min 20 sec) 
Heartbeat CPU 0 instructions: 20000003 cycles: 5634735 heartbeat IPC: 3.55744 cumulative IPC: 3.54941 (Simulation time: 0 hr 0 min 35 sec) 

Warmup complete CPU 0 instructions: 25000004 cycles: 7045728 (Simulation time: 0 hr 0 min 42 sec) 

Heartbeat CPU 0 instructions: 30000002 cycles: 18375934 heartbeat IPC: 0.784855 cumulative IPC: 0.441298 (Simulation time: 0 hr 1 min 0 sec) 
Heartbeat CPU 0 instructions: 40000002 cycles: 43814260 heartbeat IPC: 0.393108 cumulative IPC: 0.407957 (Simulation time: 0 hr 1 min 37 sec) 
Heartbeat CPU 0 instructions: 50000000 cycles: 65941102 heartbeat IPC: 0.45194 cumulative IPC: 0.424481 (Simulation time: 0 hr 2 min 12 sec) 
Finished CPU 0 instructions: 25000000 cycles: 58895375 cumulative IPC: 0.424482 (Simulation time: 0 hr 2 min 12 sec) 

ChampSim completed all CPUs

Region of Interest Statistics

CPU 0 cumulative IPC: 0.424482 instructions: 25000000 cycles: 58895375
ITLB TOTAL     ACCESS:    4439270  HIT:    4439270  MISS:          0  HIT %:        100  MISS %:          0   MPKI: 0
ITLB LOAD TRANSLATION ACCESS:    4439270  HIT:    4439270  MISS:          0  HIT %:        100  MISS %:          0   MPKI: 0
ITLB PREFETCH  REQUESTED:          0  ISSUED:          0  USEFUL:          0  USELESS:          0
ITLB USEFUL LOAD PREFETCHES:          0 PREFETCH ISSUED TO LOWER LEVEL:          0  ACCURACY: -nan
ITLB TIMELY PREFETCHES:          0 LATE PREFETCHES: 0 DROPPED PREFETCHES: 0
ITLB PREFETCHES SAME FILL-ORIGIN LEVEL: 0 DIFFERENT FILL-ORIGIN LEVEL: 0
ITLB AVERAGE MISS LATENCY: -nan cycles
ITLB RQ	ACCESS:    4792758	FORWARD:          0	MERGED:     353489	TO_CACHE:    4439269

DTLB TOTAL     ACCESS:    3753102  HIT:    3090326  MISS:     662776  HIT %:    82.3406  MISS %:    17.6594   MPKI: 26.511
DTLB LOAD TRANSLATION ACCESS:    3753102  HIT:    3090326  MISS:     662776  HIT %:    82.3406  MISS %:    17.6594   MPKI: 26.511
DTLB PREFETCH  REQUESTED:          0  ISSUED:          0  USEFUL:          0  USELESS:          0
DTLB USEFUL LOAD PREFETCHES:          0 PREFETCH ISSUED TO LOWER LEVEL:          0  ACCURACY: -nan
DTLB TIMELY PREFETCHES:          0 LATE PREFETCHES: 0 DROPPED PREFETCHES: 0
DTLB PREFETCHES SAME FILL-ORIGIN LEVEL: 0 DIFFERENT FILL-ORIGIN LEVEL: 0
DTLB AVERAGE MISS LATENCY: 69.9031 cycles
DTLB RQ	ACCESS:    4347563	FORWARD:          0	MERGED:     587731	TO_CACHE:    3759832

STLB TOTAL     ACCESS:    3843047  HIT:    2693346  MISS:    1149701  HIT %:    70.0836  MISS %:    29.9164   MPKI: 45.988
STLB LOAD TRANSLATION ACCESS:     662776  HIT:     113829  MISS:     548947  HIT %:    17.1746  MISS %:    82.8254   MPKI: 21.9579
STLB PREFETCH TRANSLATION ACCESS:     757411  HIT:     156863  MISS:     600548  HIT %:    20.7104  MISS %:    79.2896   MPKI: 24.0219
STLB TRANSLATION FROM L1D PREFETCHER ACCESS:    2422860  HIT:    2422654  MISS:        206  HIT %:    99.9915  MISS %: 0.00850235   MPKI: 0.00824
STLB PREFETCH  REQUESTED:     815792  ISSUED:     811809  USEFUL:      21391  USELESS:     579646
STLB USEFUL LOAD PREFETCHES:      21391 PREFETCH ISSUED TO LOWER LEVEL:     647102  ACCURACY: 3.30566
STLB TIMELY PREFETCHES:      21391 LATE PREFETCHES: 11083 DROPPED PREFETCHES: 35477
STLB PREFETCHES SAME FILL-ORIGIN LEVEL: 647102 DIFFERENT FILL-ORIGIN LEVEL: 0
STLB AVERAGE MISS LATENCY: 213.687 cycles
STLB RQ	ACCESS:   12131169	FORWARD:          0	MERGED:    9045529	TO_CACHE:    3085640
STLB PQ	ACCESS:     811809	FORWARD:          0	MERGED:        189	TO_CACHE:     811620

STLB Hit, L1D data hit: 0
STLB Hit, L2C data hit: 0
STLB Hit, LLC data hit: 0
STLB Hit, LLC data miss: 0
STLB STLB hints to L2: 0
L1D TOTAL     ACCESS:   15350034  HIT:    9961325  MISS:    5388709  HIT %:    64.8945  MISS %:    35.1055   MPKI: 215.548
L1D LOAD      ACCESS:    3220276  HIT:    1993183  MISS:    1227093  HIT %:    61.8948  MISS %:    38.1052   MPKI: 49.0837
L1D RFO       ACCESS:    1108637  HIT:    1039277  MISS:      69360  HIT %:    93.7437  MISS %:    6.25633   MPKI: 2.7744
L1D PREFETCH  ACCESS:   11021121  HIT:    6928865  MISS:    4092256  HIT %:     62.869  MISS %:     37.131   MPKI: 163.69
AGUS PREFETCH L1 MISS: 0
L1D PREFETCH  REQUESTED:   27170670  ISSUED:   27050609  USEFUL:      18915  USELESS:    4072762
L1D USEFUL LOAD PREFETCHES:      18915 PREFETCH ISSUED TO LOWER LEVEL:    4098251  ACCURACY: 0.461538
L1D TIMELY PREFETCHES:      18915 LATE PREFETCHES: 5992 DROPPED PREFETCHES: 0
L1D PREFETCHES SAME FILL-ORIGIN LEVEL: 4098251 DIFFERENT FILL-ORIGIN LEVEL: 0
L1D AVERAGE MISS LATENCY: 48682.2 cycles
L1D RQ	ACCESS:    6164399	FORWARD:          0	MERGED:    2858081	TO_CACHE:    3238924
L1D WQ	ACCESS:    1108674	FORWARD:      67394	MERGED:         35	TO_CACHE:    1108639
L1D PQ	ACCESS:   15582220	FORWARD:          0	MERGED:    4113831	TO_CACHE:   11468389

L1D UNIQUE REGIONS ACCESSED: 0
L1D REGIONS CONFLICTS: 0
L1D Cross Page Prefetch Requests: 0
L1D Same Page Prefetch Requests: 15582220
L1D ROI Sum of L1D PQ occupancy: 165681052
L1D PREFETCHES PUSHED FROM L2C: 0
L1I TOTAL     ACCESS:    4792758  HIT:    4792758  MISS:          0  HIT %:        100  MISS %:          0   MPKI: 0
L1I LOAD      ACCESS:    4792758  HIT:    4792758  MISS:          0  HIT %:        100  MISS %:          0   MPKI: 0
L1I PREFETCH  REQUESTED:          0  ISSUED:          0  USEFUL:          0  USELESS:          0
L1I USEFUL LOAD PREFETCHES:          0 PREFETCH ISSUED TO LOWER LEVEL:          0  ACCURACY: -nan
L1I TIMELY PREFETCHES:          0 LATE PREFETCHES: 0 DROPPED PREFETCHES: 0
L1I PREFETCHES SAME FILL-ORIGIN LEVEL: 0 DIFFERENT FILL-ORIGIN LEVEL: 0
L1I AVERAGE MISS LATENCY: -nan cycles
L1I RQ	ACCESS:    7173240	FORWARD:          0	MERGED:    2380482	TO_CACHE:    4792758

BTB TOTAL     ACCESS:    3283969  HIT:    3283961  MISS:          8  HIT %:    99.9998  MISS %: 0.000243608   MPKI: 0.00032
BTB BRANCH_DIRECT_JUMP	ACCESS:     568311  HIT:     568309  MISS:          2
BTB BRANCH_INDIRECT	ACCESS:          0  HIT:          0  MISS:          0
BTB BRANCH_CONDITIONAL	ACCESS:    1606988  HIT:    1606984  MISS:          4
BTB BRANCH_DIRECT_CALL	ACCESS:     554335  HIT:     554334  MISS:          1
BTB BRANCH_INDIRECT_CALL	ACCESS:          0  HIT:          0  MISS:          0
BTB BRANCH_RETURN	ACCESS:     554335  HIT:     554334  MISS:          1
BTB BRANCH_OTHER ACCESS:          0  HIT:          0  MISS:          0

L2C TOTAL     ACCESS:    7231656  HIT:    2454093  MISS:    4777563  HIT %:    33.9354  MISS %:    66.0646   MPKI: 191.103
L2C LOAD      ACCESS:    1221101  HIT:     290089  MISS:     931012  HIT %:    23.7563  MISS %:    76.2437   MPKI: 37.2405
L2C DATA LOAD MPKI: 37.2405
L2C INSTRUCTION LOAD MPKI: 0
L2C RFO       ACCESS:      69360  HIT:        651  MISS:      68709  HIT %:   0.938581  MISS %:    99.0614   MPKI: 2.74836
L2C PREFETCH  ACCESS:    4098248  HIT:     991160  MISS:    3107088  HIT %:     24.185  MISS %:     75.815   MPKI: 124.284
AGUS PREFETCH L1 MISS: 0
L2C DATA PREFETCH MPKI: 124.284
L2C INSTRUCTION PREFETCH MPKI: 0
L2C WRITEBACK ACCESS:     554589  HIT:     554585  MISS:          4  HIT %:    99.9993  MISS %: 0.000721255   MPKI: 0.00016
L2C LOAD TRANSLATION ACCESS:     559406  HIT:     338145  MISS:     221261  HIT %:    60.4472  MISS %:    39.5528   MPKI: 8.85044
L2C PREFETCH TRANSLATION ACCESS:     728541  HIT:     279458  MISS:     449083  HIT %:    38.3586  MISS %:    61.6414   MPKI: 17.9633
L2C TRANSLATION FROM L1D PREFETCHER ACCESS:        411  HIT:          5  MISS:        406  HIT %:    1.21655  MISS %:    98.7835   MPKI: 0.01624
L2C PREFETCH  REQUESTED:          0  ISSUED:          0  USEFUL:     356599  USELESS:    3194756
L2C USEFUL LOAD PREFETCHES:     356599 PREFETCH ISSUED TO LOWER LEVEL:    3107091  ACCURACY: 11.4769
L2C TIMELY PREFETCHES:     356599 LATE PREFETCHES: 0 DROPPED PREFETCHES: 0
L2C PREFETCHES SAME FILL-ORIGIN LEVEL: 0 DIFFERENT FILL-ORIGIN LEVEL: 0
L2C AVERAGE MISS LATENCY: 67.6894 cycles
L2C RQ	ACCESS:    2578819	FORWARD:          0	MERGED:          0	TO_CACHE:    2578819
L2C WQ	ACCESS:     554589	FORWARD:          0	MERGED:          0	TO_CACHE:     554589
L2C PQ	ACCESS:    4098251	FORWARD:          0	MERGED:          0	TO_CACHE:    4098251

L2C Instructions Evicting Data 0
L2C Translations Evicting Data 556506
L2C Data Evicting Data 3548131
L2C Instructions Evicting Instructions 0
L2C Translations Evicting Instructions 0
L2C Data Evicting Instructions 0
L2C Instructions Evicting Translations 0
L2C Translations Evicting Translations 114244
L2C Data Evicting Translations 558678
L2C Dense regions hint from L2: 0
PSCL5 TOTAL     ACCESS:    1185181  HIT:    1185181  MISS:          0  HIT %:        100  MISS %:          0   MPKI: 0
PSCL5 LOAD TRANSLATION ACCESS:     537867  HIT:     537867  MISS:          0  HIT %:        100  MISS %:          0   MPKI: 0
PSCL5 PREFETCH TRANSLATION ACCESS:     647108  HIT:     647108  MISS:          0  HIT %:        100  MISS %:          0   MPKI: 0
PSCL5 TRANSLATION FROM L1D PREFETCHER ACCESS:        206  HIT:        206  MISS:          0  HIT %:        100  MISS %:          0   MPKI: 0
PSCL5 PREFETCH  REQUESTED:          0  ISSUED:          0  USEFUL:          0  USELESS:          0
PSCL5 USEFUL LOAD PREFETCHES:          0 PREFETCH ISSUED TO LOWER LEVEL:          0  ACCURACY: -nan
PSCL5 TIMELY PREFETCHES:          0 LATE PREFETCHES: 0 DROPPED PREFETCHES: 0
PSCL5 PREFETCHES SAME FILL-ORIGIN LEVEL: 0 DIFFERENT FILL-ORIGIN LEVEL: 0

PSCL4 TOTAL     ACCESS:    1185181  HIT:    1185181  MISS:          0  HIT %:        100  MISS %:          0   MPKI: 0
PSCL4 LOAD TRANSLATION ACCESS:     537867  HIT:     537867  MISS:          0  HIT %:        100  MISS %:          0   MPKI: 0
PSCL4 PREFETCH TRANSLATION ACCESS:     647108  HIT:     647108  MISS:          0  HIT %:        100  MISS %:          0   MPKI: 0
PSCL4 TRANSLATION FROM L1D PREFETCHER ACCESS:        206  HIT:        206  MISS:          0  HIT %:        100  MISS %:          0   MPKI: 0
PSCL4 PREFETCH  REQUESTED:          0  ISSUED:          0  USEFUL:          0  USELESS:          0
PSCL4 USEFUL LOAD PREFETCHES:          0 PREFETCH ISSUED TO LOWER LEVEL:          0  ACCURACY: -nan
PSCL4 TIMELY PREFETCHES:          0 LATE PREFETCHES: 0 DROPPED PREFETCHES: 0
PSCL4 PREFETCHES SAME FILL-ORIGIN LEVEL: 0 DIFFERENT FILL-ORIGIN LEVEL: 0

PSCL3 TOTAL     ACCESS:    1184541  HIT:    1184541  MISS:          0  HIT %:        100  MISS %:          0   MPKI: 0
PSCL3 LOAD TRANSLATION ACCESS:     537867  HIT:     537867  MISS:          0  HIT %:        100  MISS %:          0   MPKI: 0
PSCL3 PREFETCH TRANSLATION ACCESS:     646468  HIT:     646468  MISS:          0  HIT %:        100  MISS %:          0   MPKI: 0
PSCL3 TRANSLATION FROM L1D PREFETCHER ACCESS:        206  HIT:        206  MISS:          0  HIT %:        100  MISS %:          0   MPKI: 0
PSCL3 PREFETCH  REQUESTED:          0  ISSUED:          0  USEFUL:          0  USELESS:          0
PSCL3 USEFUL LOAD PREFETCHES:          0 PREFETCH ISSUED TO LOWER LEVEL:          0  ACCURACY: -nan
PSCL3 TIMELY PREFETCHES:          0 LATE PREFETCHES: 0 DROPPED PREFETCHES: 0
PSCL3 PREFETCHES SAME FILL-ORIGIN LEVEL: 0 DIFFERENT FILL-ORIGIN LEVEL: 0

PSCL2 TOTAL     ACCESS:    1158596  HIT:    1077123  MISS:      81473  HIT %:     92.968  MISS %:    7.03205   MPKI: 3.25892
PSCL2 LOAD TRANSLATION ACCESS:     597801  HIT:     516328  MISS:      81473  HIT %:    86.3712  MISS %:    13.6288   MPKI: 3.25892
PSCL2 PREFETCH TRANSLATION ACCESS:     560794  HIT:     560794  MISS:          0  HIT %:        100  MISS %:          0   MPKI: 0
PSCL2 TRANSLATION FROM L1D PREFETCHER ACCESS:          1  HIT:          1  MISS:          0  HIT %:        100  MISS %:          0   MPKI: 0
PSCL2 PREFETCH  REQUESTED:          0  ISSUED:          0  USEFUL:          0  USELESS:          0
PSCL2 USEFUL LOAD PREFETCHES:          0 PREFETCH ISSUED TO LOWER LEVEL:          0  ACCURACY: -nan
PSCL2 TIMELY PREFETCHES:          0 LATE PREFETCHES: 0 DROPPED PREFETCHES: 0
PSCL2 PREFETCHES SAME FILL-ORIGIN LEVEL: 0 DIFFERENT FILL-ORIGIN LEVEL: 0

LLC TOTAL     ACCESS:    5334523  HIT:    4553838  MISS:     780685  HIT %:    85.3654  MISS %:    14.6346   MPKI: 31.2274
LLC LOAD      ACCESS:     931012  HIT:     890652  MISS:      40360  HIT %:    95.6649  MISS %:    4.33507   MPKI: 1.6144
LLC RFO       ACCESS:      68709  HIT:      67756  MISS:        953  HIT %:     98.613  MISS %:    1.38701   MPKI: 0.03812
LLC PREFETCH  ACCESS:    3107089  HIT:    2394256  MISS:     712833  HIT %:    77.0579  MISS %:    22.9421   MPKI: 28.5133
AGUS PREFETCH L1 MISS: 0
LLC WRITEBACK ACCESS:     556963  HIT:     556963  MISS:          0  HIT %:        100  MISS %:          0   MPKI: 0
LLC LOAD TRANSLATION ACCESS:     221261  HIT:     215375  MISS:       5886  HIT %:    97.3398  MISS %:    2.66021   MPKI: 0.23544
LLC PREFETCH TRANSLATION ACCESS:     449083  HIT:     428440  MISS:      20643  HIT %:    95.4033  MISS %:     4.5967   MPKI: 0.82572
LLC TRANSLATION FROM L1D PREFETCHER ACCESS:        406  HIT:        396  MISS:         10  HIT %:    97.5369  MISS %:    2.46305   MPKI: 0.0004
LLC PREFETCH  REQUESTED:          0  ISSUED:          0  USEFUL:     614069  USELESS:     104912
LLC USEFUL LOAD PREFETCHES:     614069 PREFETCH ISSUED TO LOWER LEVEL:     712835  ACCURACY: 86.1446
LLC TIMELY PREFETCHES:     614069 LATE PREFETCHES: 0 DROPPED PREFETCHES: 0
LLC PREFETCHES SAME FILL-ORIGIN LEVEL: 0 DIFFERENT FILL-ORIGIN LEVEL: 0
LLC AVERAGE MISS LATENCY: 227.889 cycles
LLC RQ	ACCESS:    1670471	FORWARD:          0	MERGED:          0	TO_CACHE:    1670471
LLC WQ	ACCESS:     556963	FORWARD:          0	MERGED:          0	TO_CACHE:     556963
LLC PQ	ACCESS:    3107091	FORWARD:          0	MERGED:          0	TO_CACHE:    3107091

LLC Dense regions hint to LLC: 0

RAW hits: 486135
Loads Generated: 6650536
Loads sent to L1D: 6164399
Stores Generated: 1108672
Stores sent to L1D: 1108674
Major fault: 0 Minor fault: 23115
Allocated PAGES: 23115
CPU 0 L1D optimized prefetcher final stats
Degree: 5
CPU 0 STLB arbitrary stride prefetcher final stats
Degree: 8

DRAM Statistics
 CHANNEL 0
 RQ ROW_BUFFER_HIT:      10836  ROW_BUFFER_MISS:     769848
 DBUS_CONGESTED:          9
 WQ ROW_BUFFER_HIT:     127835  ROW_BUFFER_MISS:     440599  FULL:          0

 AVG_CONGESTED_CYCLE: 3
 All warmup complete: 2
Channel 0 Bank busy for read cycles: 0
Channel 0 Bank busy for write cycles: 0
Channel 0
Rank 0
0banks busy for read cycles: 259240
0banks busy for write cycles: 218
1banks busy for read cycles: 9075485
1banks busy for write cycles: 140064
2banks busy for read cycles: 11349600
2banks busy for write cycles: 129098
3banks busy for read cycles: 9961731
3banks busy for write cycles: 125545
4banks busy for read cycles: 5931019
4banks busy for write cycles: 124966
5banks busy for read cycles: 1966142
5banks busy for write cycles: 126001
6banks busy for read cycles: 1959997
6banks busy for write cycles: 134878
7banks busy for read cycles: 1007000
7banks busy for write cycles: 822801
8banks busy for read cycles: 455227
8banks busy for write cycles: 15326364

CPU 0 Branch Prediction Accuracy: 99.9685% MPKI: 0.04912 Average ROB Occupancy at Mispredict: 153.926
Branch types
NOT_BRANCH: 21105674 84.4227%
BRANCH_DIRECT_JUMP: 568311 2.27324%
BRANCH_INDIRECT: 0 0%
BRANCH_CONDITIONAL: 2217340 8.86936%
BRANCH_DIRECT_CALL: 554335 2.21734%
BRANCH_INDIRECT_CALL: 0 0%
BRANCH_RETURN: 554335 2.21734%
BRANCH_OTHER: 0 0%

DRAM PAGES: 1048576
Allocated PAGES: 23115
