
*** ChampSim Multicore Out-of-Order Simulator ***

Warmup Instructions: 25000000
Simulation Instructions: 25000000
Number of CPUs: 1
LLC sets: 2048
LLC ways: 16
Off-chip DRAM Size: 4096 MB Channels: 1 Width: 64-bit Data Rate: 6400 MT/s
CPU 0 runs ../traces/trace1.champsimtrace.xz
.xz
CPU 0 Bimodal branch predictor
BTB has LRU replacement policy
ITLB has LRU replacement policy
DTLB has LRU replacement policy
CPU 0 STLB arbitrary stride prefetcher
STLB has LRU replacement policy
L1I has LRU replacement policy
L1D has LRU replacement policy
L2C has LRU replacement policy
LLC has LRU replacement policy
Heartbeat CPU 0 instructions: 10000003 cycles: 2821481 heartbeat IPC: 3.54424 cumulative IPC: 3.54424 (Simulation time: 0 hr 0 min 14 sec) 
Heartbeat CPU 0 instructions: 20000003 cycles: 5631873 heartbeat IPC: 3.55822 cumulative IPC: 3.55122 (Simulation time: 0 hr 0 min 28 sec) 

Warmup complete CPU 0 instructions: 25000004 cycles: 7042672 (Simulation time: 0 hr 0 min 36 sec) 

Heartbeat CPU 0 instructions: 30000002 cycles: 23360817 heartbeat IPC: 0.564049 cumulative IPC: 0.306407 (Simulation time: 0 hr 0 min 52 sec) 
Heartbeat CPU 0 instructions: 40000001 cycles: 58194239 heartbeat IPC: 0.287081 cumulative IPC: 0.293246 (Simulation time: 0 hr 1 min 26 sec) 
Heartbeat CPU 0 instructions: 50000003 cycles: 91875654 heartbeat IPC: 0.2969 cumulative IPC: 0.294697 (Simulation time: 0 hr 1 min 59 sec) 
Finished CPU 0 instructions: 25000003 cycles: 84832983 cumulative IPC: 0.294697 (Simulation time: 0 hr 1 min 59 sec) 

ChampSim completed all CPUs

Region of Interest Statistics

CPU 0 cumulative IPC: 0.294697 instructions: 25000003 cycles: 84832983
ITLB TOTAL     ACCESS:    4430830  HIT:    4430830  MISS:          0  HIT %:        100  MISS %:          0   MPKI: 0
ITLB LOAD TRANSLATION ACCESS:    4430830  HIT:    4430830  MISS:          0  HIT %:        100  MISS %:          0   MPKI: 0
ITLB PREFETCH  REQUESTED:          0  ISSUED:          0  USEFUL:          0  USELESS:          0
ITLB USEFUL LOAD PREFETCHES:          0 PREFETCH ISSUED TO LOWER LEVEL:          0  ACCURACY: -nan
ITLB TIMELY PREFETCHES:          0 LATE PREFETCHES: 0 DROPPED PREFETCHES: 0
ITLB PREFETCHES SAME FILL-ORIGIN LEVEL: 0 DIFFERENT FILL-ORIGIN LEVEL: 0
ITLB AVERAGE MISS LATENCY: -nan cycles
ITLB RQ	ACCESS:    4786675	FORWARD:          0	MERGED:     355846	TO_CACHE:    4430829

DTLB TOTAL     ACCESS:    3709443  HIT:    3046489  MISS:     662954  HIT %:    82.1279  MISS %:    17.8721   MPKI: 26.5182
DTLB LOAD TRANSLATION ACCESS:    3709443  HIT:    3046489  MISS:     662954  HIT %:    82.1279  MISS %:    17.8721   MPKI: 26.5182
DTLB PREFETCH  REQUESTED:          0  ISSUED:          0  USEFUL:          0  USELESS:          0
DTLB USEFUL LOAD PREFETCHES:          0 PREFETCH ISSUED TO LOWER LEVEL:          0  ACCURACY: -nan
DTLB TIMELY PREFETCHES:          0 LATE PREFETCHES: 0 DROPPED PREFETCHES: 0
DTLB PREFETCHES SAME FILL-ORIGIN LEVEL: 0 DIFFERENT FILL-ORIGIN LEVEL: 0
DTLB AVERAGE MISS LATENCY: 43.3464 cycles
DTLB RQ	ACCESS:    4309280	FORWARD:          0	MERGED:     590833	TO_CACHE:    3718447

STLB TOTAL     ACCESS:    1287899  HIT:     237313  MISS:    1050586  HIT %:    18.4264  MISS %:    81.5736   MPKI: 42.0234
STLB LOAD TRANSLATION ACCESS:     662954  HIT:     120788  MISS:     542166  HIT %:    18.2197  MISS %:    81.7803   MPKI: 21.6866
STLB PREFETCH TRANSLATION ACCESS:     624945  HIT:     116525  MISS:     508420  HIT %:    18.6456  MISS %:    81.3544   MPKI: 20.3368
STLB PREFETCH  REQUESTED:     664764  ISSUED:     663460  USEFUL:      26590  USELESS:     482066
STLB USEFUL LOAD PREFETCHES:      26590 PREFETCH ISSUED TO LOWER LEVEL:     537486  ACCURACY: 4.94711
STLB TIMELY PREFETCHES:      26590 LATE PREFETCHES: 6649 DROPPED PREFETCHES: 22418
STLB PREFETCHES SAME FILL-ORIGIN LEVEL: 537486 DIFFERENT FILL-ORIGIN LEVEL: 0
STLB AVERAGE MISS LATENCY: 91.1888 cycles
STLB RQ	ACCESS:     662955	FORWARD:          0	MERGED:          0	TO_CACHE:     662955
STLB PQ	ACCESS:     663460	FORWARD:          0	MERGED:        165	TO_CACHE:     663295

STLB Hit, L1D data hit: 0
STLB Hit, L2C data hit: 0
STLB Hit, LLC data hit: 0
STLB Hit, LLC data miss: 0
STLB STLB hints to L2: 0
L1D TOTAL     ACCESS:    4292029  HIT:    3086763  MISS:    1205266  HIT %:    71.9185  MISS %:    28.0815   MPKI: 48.2106
L1D LOAD      ACCESS:    3183364  HIT:    2047462  MISS:    1135902  HIT %:    64.3176  MISS %:    35.6824   MPKI: 45.4361
L1D RFO       ACCESS:    1108665  HIT:    1039301  MISS:      69364  HIT %:    93.7435  MISS %:    6.25653   MPKI: 2.77456
L1D PREFETCH  REQUESTED:          0  ISSUED:          0  USEFUL:          0  USELESS:          0
L1D USEFUL LOAD PREFETCHES:          0 PREFETCH ISSUED TO LOWER LEVEL:          0  ACCURACY: -nan
L1D TIMELY PREFETCHES:          0 LATE PREFETCHES: 0 DROPPED PREFETCHES: 0
L1D PREFETCHES SAME FILL-ORIGIN LEVEL: 0 DIFFERENT FILL-ORIGIN LEVEL: 0
L1D AVERAGE MISS LATENCY: 124.971 cycles
L1D RQ	ACCESS:    6164306	FORWARD:          0	MERGED:    2896395	TO_CACHE:    3200613
L1D WQ	ACCESS:    1108674	FORWARD:      67298	MERGED:          7	TO_CACHE:    1108667

L1D UNIQUE REGIONS ACCESSED: 0
L1D REGIONS CONFLICTS: 0
L1D Cross Page Prefetch Requests: 0
L1D Same Page Prefetch Requests: 0
L1D ROI Sum of L1D PQ occupancy: 0
L1D PREFETCHES PUSHED FROM L2C: 0
L1I TOTAL     ACCESS:    4786675  HIT:    4786675  MISS:          0  HIT %:        100  MISS %:          0   MPKI: 0
L1I LOAD      ACCESS:    4786675  HIT:    4786675  MISS:          0  HIT %:        100  MISS %:          0   MPKI: 0
L1I PREFETCH  REQUESTED:          0  ISSUED:          0  USEFUL:          0  USELESS:          0
L1I USEFUL LOAD PREFETCHES:          0 PREFETCH ISSUED TO LOWER LEVEL:          0  ACCURACY: -nan
L1I TIMELY PREFETCHES:          0 LATE PREFETCHES: 0 DROPPED PREFETCHES: 0
L1I PREFETCHES SAME FILL-ORIGIN LEVEL: 0 DIFFERENT FILL-ORIGIN LEVEL: 0
L1I AVERAGE MISS LATENCY: -nan cycles
L1I RQ	ACCESS:    7075225	FORWARD:          0	MERGED:    2288550	TO_CACHE:    4786675

BTB TOTAL     ACCESS:    3283963  HIT:    3283955  MISS:          8  HIT %:    99.9998  MISS %: 0.000243608   MPKI: 0.00032
BTB BRANCH_DIRECT_JUMP	ACCESS:     568310  HIT:     568308  MISS:          2
BTB BRANCH_INDIRECT	ACCESS:          0  HIT:          0  MISS:          0
BTB BRANCH_CONDITIONAL	ACCESS:    1606985  HIT:    1606981  MISS:          4
BTB BRANCH_DIRECT_CALL	ACCESS:     554334  HIT:     554333  MISS:          1
BTB BRANCH_INDIRECT_CALL	ACCESS:          0  HIT:          0  MISS:          0
BTB BRANCH_RETURN	ACCESS:     554334  HIT:     554333  MISS:          1
BTB BRANCH_OTHER ACCESS:          0  HIT:          0  MISS:          0

L2C TOTAL     ACCESS:    2926953  HIT:    1813288  MISS:    1113665  HIT %:    61.9514  MISS %:    38.0486   MPKI: 44.5466
L2C LOAD      ACCESS:    1135902  HIT:     409932  MISS:     725970  HIT %:    36.0887  MISS %:    63.9113   MPKI: 29.0388
L2C DATA LOAD MPKI: 29.0388
L2C INSTRUCTION LOAD MPKI: 0
L2C RFO       ACCESS:      69364  HIT:      38309  MISS:      31055  HIT %:    55.2289  MISS %:    44.7711   MPKI: 1.2422
L2C WRITEBACK ACCESS:     554349  HIT:     554349  MISS:          0  HIT %:        100  MISS %:          0   MPKI: 0
L2C LOAD TRANSLATION ACCESS:     560802  HIT:     426901  MISS:     133901  HIT %:    76.1233  MISS %:    23.8767   MPKI: 5.35604
L2C PREFETCH TRANSLATION ACCESS:     606536  HIT:     383797  MISS:     222739  HIT %:    63.2769  MISS %:    36.7231   MPKI: 8.90956
L2C PREFETCH  REQUESTED:          0  ISSUED:          0  USEFUL:     178781  USELESS:      43914
L2C USEFUL LOAD PREFETCHES:     178781 PREFETCH ISSUED TO LOWER LEVEL:          0  ACCURACY: inf
L2C TIMELY PREFETCHES:     178781 LATE PREFETCHES: 0 DROPPED PREFETCHES: 0
L2C PREFETCHES SAME FILL-ORIGIN LEVEL: 0 DIFFERENT FILL-ORIGIN LEVEL: 0
L2C AVERAGE MISS LATENCY: 129.859 cycles
L2C RQ	ACCESS:    2372607	FORWARD:          0	MERGED:          0	TO_CACHE:    2372607
L2C WQ	ACCESS:     554349	FORWARD:          0	MERGED:          0	TO_CACHE:     554349

L2C Instructions Evicting Data 0
L2C Translations Evicting Data 195455
L2C Data Evicting Data 561378
L2C Instructions Evicting Instructions 0
L2C Translations Evicting Instructions 0
L2C Data Evicting Instructions 0
L2C Instructions Evicting Translations 0
L2C Translations Evicting Translations 161185
L2C Data Evicting Translations 195647
L2C Dense regions hint from L2: 0
PSCL5 TOTAL     ACCESS:    1073005  HIT:    1073005  MISS:          0  HIT %:        100  MISS %:          0   MPKI: 0
PSCL5 LOAD TRANSLATION ACCESS:     535518  HIT:     535518  MISS:          0  HIT %:        100  MISS %:          0   MPKI: 0
PSCL5 PREFETCH TRANSLATION ACCESS:     537487  HIT:     537487  MISS:          0  HIT %:        100  MISS %:          0   MPKI: 0
PSCL5 PREFETCH  REQUESTED:          0  ISSUED:          0  USEFUL:          0  USELESS:          0
PSCL5 USEFUL LOAD PREFETCHES:          0 PREFETCH ISSUED TO LOWER LEVEL:          0  ACCURACY: -nan
PSCL5 TIMELY PREFETCHES:          0 LATE PREFETCHES: 0 DROPPED PREFETCHES: 0
PSCL5 PREFETCHES SAME FILL-ORIGIN LEVEL: 0 DIFFERENT FILL-ORIGIN LEVEL: 0

PSCL4 TOTAL     ACCESS:    1073005  HIT:    1073005  MISS:          0  HIT %:        100  MISS %:          0   MPKI: 0
PSCL4 LOAD TRANSLATION ACCESS:     535518  HIT:     535518  MISS:          0  HIT %:        100  MISS %:          0   MPKI: 0
PSCL4 PREFETCH TRANSLATION ACCESS:     537487  HIT:     537487  MISS:          0  HIT %:        100  MISS %:          0   MPKI: 0
PSCL4 PREFETCH  REQUESTED:          0  ISSUED:          0  USEFUL:          0  USELESS:          0
PSCL4 USEFUL LOAD PREFETCHES:          0 PREFETCH ISSUED TO LOWER LEVEL:          0  ACCURACY: -nan
PSCL4 TIMELY PREFETCHES:          0 LATE PREFETCHES: 0 DROPPED PREFETCHES: 0
PSCL4 PREFETCHES SAME FILL-ORIGIN LEVEL: 0 DIFFERENT FILL-ORIGIN LEVEL: 0

PSCL3 TOTAL     ACCESS:    1072854  HIT:    1072854  MISS:          0  HIT %:        100  MISS %:          0   MPKI: 0
PSCL3 LOAD TRANSLATION ACCESS:     535518  HIT:     535518  MISS:          0  HIT %:        100  MISS %:          0   MPKI: 0
PSCL3 PREFETCH TRANSLATION ACCESS:     537336  HIT:     537336  MISS:          0  HIT %:        100  MISS %:          0   MPKI: 0
PSCL3 PREFETCH  REQUESTED:          0  ISSUED:          0  USEFUL:          0  USELESS:          0
PSCL3 USEFUL LOAD PREFETCHES:          0 PREFETCH ISSUED TO LOWER LEVEL:          0  ACCURACY: -nan
PSCL3 TIMELY PREFETCHES:          0 LATE PREFETCHES: 0 DROPPED PREFETCHES: 0
PSCL3 PREFETCHES SAME FILL-ORIGIN LEVEL: 0 DIFFERENT FILL-ORIGIN LEVEL: 0

PSCL2 TOTAL     ACCESS:    1056515  HIT:     975638  MISS:      80877  HIT %:    92.3449  MISS %:    7.65507   MPKI: 3.23508
PSCL2 LOAD TRANSLATION ACCESS:     591111  HIT:     510234  MISS:      80877  HIT %:    86.3178  MISS %:    13.6822   MPKI: 3.23508
PSCL2 PREFETCH TRANSLATION ACCESS:     465404  HIT:     465404  MISS:          0  HIT %:        100  MISS %:          0   MPKI: 0
PSCL2 PREFETCH  REQUESTED:          0  ISSUED:          0  USEFUL:          0  USELESS:          0
PSCL2 USEFUL LOAD PREFETCHES:          0 PREFETCH ISSUED TO LOWER LEVEL:          0  ACCURACY: -nan
PSCL2 TIMELY PREFETCHES:          0 LATE PREFETCHES: 0 DROPPED PREFETCHES: 0
PSCL2 PREFETCHES SAME FILL-ORIGIN LEVEL: 0 DIFFERENT FILL-ORIGIN LEVEL: 0

LLC TOTAL     ACCESS:    1668349  HIT:    1017324  MISS:     651025  HIT %:    60.9779  MISS %:    39.0221   MPKI: 26.041
LLC LOAD      ACCESS:     725970  HIT:      84499  MISS:     641471  HIT %:    11.6395  MISS %:    88.3605   MPKI: 25.6588
LLC RFO       ACCESS:      31055  HIT:      31051  MISS:          4  HIT %:    99.9871  MISS %:  0.0128804   MPKI: 0.00016
LLC WRITEBACK ACCESS:     554684  HIT:     554684  MISS:          0  HIT %:        100  MISS %:          0   MPKI: 0
LLC LOAD TRANSLATION ACCESS:     133901  HIT:     130768  MISS:       3133  HIT %:    97.6602  MISS %:    2.33979   MPKI: 0.12532
LLC PREFETCH TRANSLATION ACCESS:     222739  HIT:     216322  MISS:       6417  HIT %:     97.119  MISS %:    2.88095   MPKI: 0.25668
LLC PREFETCH  REQUESTED:          0  ISSUED:          0  USEFUL:       3949  USELESS:       2507
LLC USEFUL LOAD PREFETCHES:       3949 PREFETCH ISSUED TO LOWER LEVEL:          0  ACCURACY: inf
LLC TIMELY PREFETCHES:       3949 LATE PREFETCHES: 0 DROPPED PREFETCHES: 0
LLC PREFETCHES SAME FILL-ORIGIN LEVEL: 0 DIFFERENT FILL-ORIGIN LEVEL: 0
LLC AVERAGE MISS LATENCY: 170.619 cycles
LLC RQ	ACCESS:    1113667	FORWARD:          0	MERGED:          0	TO_CACHE:    1113667
LLC WQ	ACCESS:     554684	FORWARD:          0	MERGED:          0	TO_CACHE:     554684

LLC Dense regions hint to LLC: 0

RAW hits: 486225
Loads Generated: 6650534
Loads sent to L1D: 6164306
Stores Generated: 1108672
Stores sent to L1D: 1108674
Major fault: 0 Minor fault: 23116
Allocated PAGES: 23116
CPU 0 STLB arbitrary stride prefetcher final stats
Degree: 6

DRAM Statistics
 CHANNEL 0
 RQ ROW_BUFFER_HIT:        932  ROW_BUFFER_MISS:     650093
 DBUS_CONGESTED:          4
 WQ ROW_BUFFER_HIT:     236873  ROW_BUFFER_MISS:     317570  FULL:          0

 AVG_CONGESTED_CYCLE: 6
 All warmup complete: 2
Channel 0 Bank busy for read cycles: 0
Channel 0 Bank busy for write cycles: 0
Channel 0
Rank 0
0banks busy for read cycles: 2036168
0banks busy for write cycles: 48282
1banks busy for read cycles: 19004621
1banks busy for write cycles: 3899055
2banks busy for read cycles: 13573913
2banks busy for write cycles: 6013390
3banks busy for read cycles: 11914470
3banks busy for write cycles: 9256741
4banks busy for read cycles: 3847540
4banks busy for write cycles: 8495181
5banks busy for read cycles: 54879
5banks busy for write cycles: 3719296
6banks busy for read cycles: 249
6banks busy for write cycles: 1589873
7banks busy for read cycles: 0
7banks busy for write cycles: 776940
8banks busy for read cycles: 0
8banks busy for write cycles: 602386

CPU 0 Branch Prediction Accuracy: 99.9685% MPKI: 0.04912 Average ROB Occupancy at Mispredict: 155.859
Branch types
NOT_BRANCH: 21105636 84.4225%
BRANCH_DIRECT_JUMP: 568310 2.27324%
BRANCH_INDIRECT: 0 0%
BRANCH_CONDITIONAL: 2217336 8.86934%
BRANCH_DIRECT_CALL: 554334 2.21734%
BRANCH_INDIRECT_CALL: 0 0%
BRANCH_RETURN: 554334 2.21734%
BRANCH_OTHER: 0 0%

DRAM PAGES: 1048576
Allocated PAGES: 23116
