
*** ChampSim Multicore Out-of-Order Simulator ***

Warmup Instructions: 25000000
Simulation Instructions: 25000000
Number of CPUs: 1
LLC sets: 2048
LLC ways: 16
Off-chip DRAM Size: 4096 MB Channels: 1 Width: 64-bit Data Rate: 6400 MT/s
CPU 0 runs ../traces/trace1.champsimtrace.xz
.xz
CPU 0 Bimodal branch predictor
BTB has LRU replacement policy
ITLB has LRU replacement policy
DTLB has LRU replacement policy
STLB has LRU replacement policy
L1I has LRU replacement policy
CPU 0 L1D Complex-Stride prefetcher
L1D has LRU replacement policy
L2C has LRU replacement policy
LLC has LRU replacement policy
Heartbeat CPU 0 instructions: 10000003 cycles: 2856087 heartbeat IPC: 3.50129 cumulative IPC: 3.50129 (Simulation time: 0 hr 0 min 21 sec) 
Heartbeat CPU 0 instructions: 20000003 cycles: 5703404 heartbeat IPC: 3.51208 cumulative IPC: 3.50668 (Simulation time: 0 hr 0 min 36 sec) 

Warmup complete CPU 0 instructions: 25000004 cycles: 7128466 (Simulation time: 0 hr 0 min 43 sec) 

Heartbeat CPU 0 instructions: 30000002 cycles: 26603642 heartbeat IPC: 0.478463 cumulative IPC: 0.256737 (Simulation time: 0 hr 1 min 3 sec) 
Heartbeat CPU 0 instructions: 40000001 cycles: 65467045 heartbeat IPC: 0.257311 cumulative IPC: 0.25712 (Simulation time: 0 hr 1 min 40 sec) 
Heartbeat CPU 0 instructions: 50000003 cycles: 102544868 heartbeat IPC: 0.269703 cumulative IPC: 0.262009 (Simulation time: 0 hr 2 min 17 sec) 
Finished CPU 0 instructions: 25000003 cycles: 95416403 cumulative IPC: 0.26201 (Simulation time: 0 hr 2 min 17 sec) 

ChampSim completed all CPUs

Region of Interest Statistics

CPU 0 cumulative IPC: 0.26201 instructions: 25000003 cycles: 95416403
ITLB TOTAL     ACCESS:    4488339  HIT:    4488339  MISS:          0  HIT %:        100  MISS %:          0   MPKI: 0
ITLB LOAD TRANSLATION ACCESS:    4488339  HIT:    4488339  MISS:          0  HIT %:        100  MISS %:          0   MPKI: 0
ITLB PREFETCH  REQUESTED:          0  ISSUED:          0  USEFUL:          0  USELESS:          0
ITLB USEFUL LOAD PREFETCHES:          0 PREFETCH ISSUED TO LOWER LEVEL:          0  ACCURACY: -nan
ITLB TIMELY PREFETCHES:          0 LATE PREFETCHES: 0 DROPPED PREFETCHES: 0
ITLB PREFETCHES SAME FILL-ORIGIN LEVEL: 0 DIFFERENT FILL-ORIGIN LEVEL: 0
ITLB AVERAGE MISS LATENCY: -nan cycles
ITLB RQ	ACCESS:    4831114	FORWARD:          0	MERGED:     342776	TO_CACHE:    4488338

DTLB TOTAL     ACCESS:    3746306  HIT:    3083457  MISS:     662849  HIT %:    82.3066  MISS %:    17.6934   MPKI: 26.514
DTLB LOAD TRANSLATION ACCESS:    3746306  HIT:    3083457  MISS:     662849  HIT %:    82.3066  MISS %:    17.6934   MPKI: 26.514
DTLB PREFETCH  REQUESTED:          0  ISSUED:          0  USEFUL:          0  USELESS:          0
DTLB USEFUL LOAD PREFETCHES:          0 PREFETCH ISSUED TO LOWER LEVEL:          0  ACCURACY: -nan
DTLB TIMELY PREFETCHES:          0 LATE PREFETCHES: 0 DROPPED PREFETCHES: 0
DTLB PREFETCHES SAME FILL-ORIGIN LEVEL: 0 DIFFERENT FILL-ORIGIN LEVEL: 0
DTLB AVERAGE MISS LATENCY: 64.5088 cycles
DTLB RQ	ACCESS:    4344035	FORWARD:          0	MERGED:     591912	TO_CACHE:    3752123

STLB TOTAL     ACCESS:    2114368  HIT:    1552198  MISS:     562170  HIT %:    73.4119  MISS %:    26.5881   MPKI: 22.4868
STLB LOAD TRANSLATION ACCESS:     662849  HIT:     100880  MISS:     561969  HIT %:    15.2192  MISS %:    84.7808   MPKI: 22.4788
STLB TRANSLATION FROM L1D PREFETCHER ACCESS:    1451519  HIT:    1451318  MISS:        201  HIT %:    99.9862  MISS %:  0.0138476   MPKI: 0.00804
STLB PREFETCH  REQUESTED:          0  ISSUED:          0  USEFUL:        201  USELESS:          0
STLB USEFUL LOAD PREFETCHES:        201 PREFETCH ISSUED TO LOWER LEVEL:          0  ACCURACY: inf
STLB TIMELY PREFETCHES:        201 LATE PREFETCHES: 0 DROPPED PREFETCHES: 0
STLB PREFETCHES SAME FILL-ORIGIN LEVEL: 0 DIFFERENT FILL-ORIGIN LEVEL: 0
STLB AVERAGE MISS LATENCY: 65.3777 cycles
STLB RQ	ACCESS:    3018295	FORWARD:          0	MERGED:     903925	TO_CACHE:    2114370

STLB Hit, L1D data hit: 0
STLB Hit, L2C data hit: 0
STLB Hit, LLC data hit: 0
STLB Hit, LLC data miss: 0
STLB STLB hints to L2: 0
L1D TOTAL     ACCESS:    6648997  HIT:    4883912  MISS:    1765085  HIT %:    73.4534  MISS %:    26.5466   MPKI: 70.6034
L1D LOAD      ACCESS:    3211689  HIT:    2074678  MISS:    1137011  HIT %:    64.5977  MISS %:    35.4023   MPKI: 45.4804
L1D RFO       ACCESS:    1108666  HIT:    1039512  MISS:      69154  HIT %:    93.7624  MISS %:    6.23759   MPKI: 2.76616
L1D PREFETCH  ACCESS:    2328642  HIT:    1769722  MISS:     558920  HIT %:     75.998  MISS %:     24.002   MPKI: 22.3568
AGUS PREFETCH L1 MISS: 0
L1D PREFETCH  REQUESTED:   12114513  ISSUED:   12114506  USEFUL:      62544  USELESS:     496525
L1D USEFUL LOAD PREFETCHES:      62544 PREFETCH ISSUED TO LOWER LEVEL:     562636  ACCURACY: 11.1162
L1D TIMELY PREFETCHES:      62544 LATE PREFETCHES: 3705 DROPPED PREFETCHES: 0
L1D PREFETCHES SAME FILL-ORIGIN LEVEL: 562636 DIFFERENT FILL-ORIGIN LEVEL: 0
L1D AVERAGE MISS LATENCY: 87502.1 cycles
L1D RQ	ACCESS:    6154914	FORWARD:          0	MERGED:    2861639	TO_CACHE:    3235367
L1D WQ	ACCESS:    1108674	FORWARD:      57908	MERGED:          6	TO_CACHE:    1108668
L1D PQ	ACCESS:    9759062	FORWARD:          0	MERGED:    7403618	TO_CACHE:    2355444

L1D UNIQUE REGIONS ACCESSED: 0
L1D REGIONS CONFLICTS: 0
L1D Cross Page Prefetch Requests: 0
L1D Same Page Prefetch Requests: 23371372
L1D ROI Sum of L1D PQ occupancy: 29915328
L1D PREFETCHES PUSHED FROM L2C: 0
L1I TOTAL     ACCESS:    4831114  HIT:    4831114  MISS:          0  HIT %:        100  MISS %:          0   MPKI: 0
L1I LOAD      ACCESS:    4831114  HIT:    4831114  MISS:          0  HIT %:        100  MISS %:          0   MPKI: 0
L1I PREFETCH  REQUESTED:          0  ISSUED:          0  USEFUL:          0  USELESS:          0
L1I USEFUL LOAD PREFETCHES:          0 PREFETCH ISSUED TO LOWER LEVEL:          0  ACCURACY: -nan
L1I TIMELY PREFETCHES:          0 LATE PREFETCHES: 0 DROPPED PREFETCHES: 0
L1I PREFETCHES SAME FILL-ORIGIN LEVEL: 0 DIFFERENT FILL-ORIGIN LEVEL: 0
L1I AVERAGE MISS LATENCY: -nan cycles
L1I RQ	ACCESS:    7227054	FORWARD:          0	MERGED:    2395940	TO_CACHE:    4831114

BTB TOTAL     ACCESS:    3283963  HIT:    3283955  MISS:          8  HIT %:    99.9998  MISS %: 0.000243608   MPKI: 0.00032
BTB BRANCH_DIRECT_JUMP	ACCESS:     568310  HIT:     568308  MISS:          2
BTB BRANCH_INDIRECT	ACCESS:          0  HIT:          0  MISS:          0
BTB BRANCH_CONDITIONAL	ACCESS:    1606985  HIT:    1606981  MISS:          4
BTB BRANCH_DIRECT_CALL	ACCESS:     554334  HIT:     554333  MISS:          1
BTB BRANCH_INDIRECT_CALL	ACCESS:          0  HIT:          0  MISS:          0
BTB BRANCH_RETURN	ACCESS:     554334  HIT:     554333  MISS:          1
BTB BRANCH_OTHER ACCESS:          0  HIT:          0  MISS:          0

L2C TOTAL     ACCESS:    2958566  HIT:    1391804  MISS:    1566762  HIT %:    47.0432  MISS %:    52.9568   MPKI: 62.6705
L2C LOAD      ACCESS:    1133306  HIT:     380214  MISS:     753092  HIT %:    33.5491  MISS %:    66.4509   MPKI: 30.1237
L2C DATA LOAD MPKI: 30.1237
L2C INSTRUCTION LOAD MPKI: 0
L2C RFO       ACCESS:      69143  HIT:      22613  MISS:      46530  HIT %:    32.7047  MISS %:    67.2953   MPKI: 1.8612
L2C PREFETCH  ACCESS:     562636  HIT:     210597  MISS:     352039  HIT %:    37.4304  MISS %:    62.5696   MPKI: 14.0816
AGUS PREFETCH L1 MISS: 0
L2C DATA PREFETCH MPKI: 14.0816
L2C INSTRUCTION PREFETCH MPKI: 0
L2C WRITEBACK ACCESS:     554285  HIT:     554285  MISS:          0  HIT %:        100  MISS %:          0   MPKI: 0
L2C LOAD TRANSLATION ACCESS:     638794  HIT:     223996  MISS:     414798  HIT %:    35.0655  MISS %:    64.9345   MPKI: 16.5919
L2C TRANSLATION FROM L1D PREFETCHER ACCESS:        402  HIT:         99  MISS:        303  HIT %:    24.6269  MISS %:    75.3731   MPKI: 0.01212
L2C PREFETCH  REQUESTED:          0  ISSUED:          0  USEFUL:       1422  USELESS:     350976
L2C USEFUL LOAD PREFETCHES:       1422 PREFETCH ISSUED TO LOWER LEVEL:     352039  ACCURACY: 0.403933
L2C TIMELY PREFETCHES:       1422 LATE PREFETCHES: 0 DROPPED PREFETCHES: 0
L2C PREFETCHES SAME FILL-ORIGIN LEVEL: 0 DIFFERENT FILL-ORIGIN LEVEL: 0
L2C AVERAGE MISS LATENCY: 123.086 cycles
L2C RQ	ACCESS:    1841646	FORWARD:          0	MERGED:          0	TO_CACHE:    1841646
L2C WQ	ACCESS:     554285	FORWARD:          0	MERGED:          0	TO_CACHE:     554285
L2C PQ	ACCESS:     562636	FORWARD:          0	MERGED:          0	TO_CACHE:     562636

L2C Instructions Evicting Data 0
L2C Translations Evicting Data 274721
L2C Data Evicting Data 876861
L2C Instructions Evicting Instructions 0
L2C Translations Evicting Instructions 0
L2C Data Evicting Instructions 0
L2C Instructions Evicting Translations 0
L2C Translations Evicting Translations 140380
L2C Data Evicting Translations 274800
L2C Dense regions hint from L2: 0
PSCL5 TOTAL     ACCESS:     562171  HIT:     562171  MISS:          0  HIT %:        100  MISS %:          0   MPKI: 0
PSCL5 LOAD TRANSLATION ACCESS:     561970  HIT:     561970  MISS:          0  HIT %:        100  MISS %:          0   MPKI: 0
PSCL5 TRANSLATION FROM L1D PREFETCHER ACCESS:        201  HIT:        201  MISS:          0  HIT %:        100  MISS %:          0   MPKI: 0
PSCL5 PREFETCH  REQUESTED:          0  ISSUED:          0  USEFUL:          0  USELESS:          0
PSCL5 USEFUL LOAD PREFETCHES:          0 PREFETCH ISSUED TO LOWER LEVEL:          0  ACCURACY: -nan
PSCL5 TIMELY PREFETCHES:          0 LATE PREFETCHES: 0 DROPPED PREFETCHES: 0
PSCL5 PREFETCHES SAME FILL-ORIGIN LEVEL: 0 DIFFERENT FILL-ORIGIN LEVEL: 0

PSCL4 TOTAL     ACCESS:     562171  HIT:     562171  MISS:          0  HIT %:        100  MISS %:          0   MPKI: 0
PSCL4 LOAD TRANSLATION ACCESS:     561970  HIT:     561970  MISS:          0  HIT %:        100  MISS %:          0   MPKI: 0
PSCL4 TRANSLATION FROM L1D PREFETCHER ACCESS:        201  HIT:        201  MISS:          0  HIT %:        100  MISS %:          0   MPKI: 0
PSCL4 PREFETCH  REQUESTED:          0  ISSUED:          0  USEFUL:          0  USELESS:          0
PSCL4 USEFUL LOAD PREFETCHES:          0 PREFETCH ISSUED TO LOWER LEVEL:          0  ACCURACY: -nan
PSCL4 TIMELY PREFETCHES:          0 LATE PREFETCHES: 0 DROPPED PREFETCHES: 0
PSCL4 PREFETCHES SAME FILL-ORIGIN LEVEL: 0 DIFFERENT FILL-ORIGIN LEVEL: 0

PSCL3 TOTAL     ACCESS:     562171  HIT:     562171  MISS:          0  HIT %:        100  MISS %:          0   MPKI: 0
PSCL3 LOAD TRANSLATION ACCESS:     561970  HIT:     561970  MISS:          0  HIT %:        100  MISS %:          0   MPKI: 0
PSCL3 TRANSLATION FROM L1D PREFETCHER ACCESS:        201  HIT:        201  MISS:          0  HIT %:        100  MISS %:          0   MPKI: 0
PSCL3 PREFETCH  REQUESTED:          0  ISSUED:          0  USEFUL:          0  USELESS:          0
PSCL3 USEFUL LOAD PREFETCHES:          0 PREFETCH ISSUED TO LOWER LEVEL:          0  ACCURACY: -nan
PSCL3 TIMELY PREFETCHES:          0 LATE PREFETCHES: 0 DROPPED PREFETCHES: 0
PSCL3 PREFETCHES SAME FILL-ORIGIN LEVEL: 0 DIFFERENT FILL-ORIGIN LEVEL: 0

PSCL2 TOTAL     ACCESS:     562171  HIT:     485146  MISS:      77025  HIT %:    86.2987  MISS %:    13.7013   MPKI: 3.081
PSCL2 LOAD TRANSLATION ACCESS:     562171  HIT:     485146  MISS:      77025  HIT %:    86.2987  MISS %:    13.7013   MPKI: 3.081
PSCL2 PREFETCH  REQUESTED:          0  ISSUED:          0  USEFUL:          0  USELESS:          0
PSCL2 USEFUL LOAD PREFETCHES:          0 PREFETCH ISSUED TO LOWER LEVEL:          0  ACCURACY: -nan
PSCL2 TIMELY PREFETCHES:          0 LATE PREFETCHES: 0 DROPPED PREFETCHES: 0
PSCL2 PREFETCHES SAME FILL-ORIGIN LEVEL: 0 DIFFERENT FILL-ORIGIN LEVEL: 0

LLC TOTAL     ACCESS:    2121384  HIT:    1300672  MISS:     820712  HIT %:    61.3124  MISS %:    38.6876   MPKI: 32.8285
LLC LOAD      ACCESS:     753092  HIT:     115058  MISS:     638034  HIT %:    15.2781  MISS %:    84.7219   MPKI: 25.5214
LLC RFO       ACCESS:      46530  HIT:      46526  MISS:          4  HIT %:    99.9914  MISS %:  0.0085966   MPKI: 0.00016
LLC PREFETCH  ACCESS:     352039  HIT:     173786  MISS:     178253  HIT %:    49.3656  MISS %:    50.6344   MPKI: 7.13012
AGUS PREFETCH L1 MISS: 0
LLC WRITEBACK ACCESS:     554622  HIT:     554622  MISS:          0  HIT %:        100  MISS %:          0   MPKI: 0
LLC LOAD TRANSLATION ACCESS:     414798  HIT:     410380  MISS:       4418  HIT %:    98.9349  MISS %:     1.0651   MPKI: 0.17672
LLC TRANSLATION FROM L1D PREFETCHER ACCESS:        303  HIT:        300  MISS:          3  HIT %:    99.0099  MISS %:   0.990099   MPKI: 0.00012
LLC PREFETCH  REQUESTED:          0  ISSUED:          0  USEFUL:       2120  USELESS:     175579
LLC USEFUL LOAD PREFETCHES:       2120 PREFETCH ISSUED TO LOWER LEVEL:     178253  ACCURACY: 1.18932
LLC TIMELY PREFETCHES:       2120 LATE PREFETCHES: 0 DROPPED PREFETCHES: 0
LLC PREFETCHES SAME FILL-ORIGIN LEVEL: 0 DIFFERENT FILL-ORIGIN LEVEL: 0
LLC AVERAGE MISS LATENCY: 177.367 cycles
LLC RQ	ACCESS:    1214724	FORWARD:          0	MERGED:          0	TO_CACHE:    1214724
LLC WQ	ACCESS:     554622	FORWARD:          0	MERGED:          0	TO_CACHE:     554622
LLC PQ	ACCESS:     352039	FORWARD:          0	MERGED:          0	TO_CACHE:     352039

LLC Dense regions hint to LLC: 0

RAW hits: 495619
Loads Generated: 6650536
Loads sent to L1D: 6154914
Stores Generated: 1108672
Stores sent to L1D: 1108674
Major fault: 0 Minor fault: 23116
Allocated PAGES: 23116
CPU 0 L1D complex stride prefetcher final stats
Degree: 5

DRAM Statistics
 CHANNEL 0
 RQ ROW_BUFFER_HIT:      44101  ROW_BUFFER_MISS:     776587
 DBUS_CONGESTED:         26
 WQ ROW_BUFFER_HIT:     169985  ROW_BUFFER_MISS:     385002  FULL:          0

 AVG_CONGESTED_CYCLE: 4
 All warmup complete: 2
Channel 0 Bank busy for read cycles: 0
Channel 0 Bank busy for write cycles: 0
Channel 0
Rank 0
0banks busy for read cycles: 2981313
0banks busy for write cycles: 51389
1banks busy for read cycles: 25404766
1banks busy for write cycles: 5078945
2banks busy for read cycles: 15723587
2banks busy for write cycles: 6303933
3banks busy for read cycles: 10769645
3banks busy for write cycles: 7246923
4banks busy for read cycles: 4273392
4banks busy for write cycles: 5929324
5banks busy for read cycles: 1463418
5banks busy for write cycles: 3714478
6banks busy for read cycles: 614844
6banks busy for write cycles: 2554727
7banks busy for read cycles: 168108
7banks busy for write cycles: 1770606
8banks busy for read cycles: 33253
8banks busy for write cycles: 1333753

CPU 0 Branch Prediction Accuracy: 99.9685% MPKI: 0.04912 Average ROB Occupancy at Mispredict: 157.401
Branch types
NOT_BRANCH: 21105636 84.4225%
BRANCH_DIRECT_JUMP: 568310 2.27324%
BRANCH_INDIRECT: 0 0%
BRANCH_CONDITIONAL: 2217336 8.86934%
BRANCH_DIRECT_CALL: 554334 2.21734%
BRANCH_INDIRECT_CALL: 0 0%
BRANCH_RETURN: 554334 2.21734%
BRANCH_OTHER: 0 0%

DRAM PAGES: 1048576
Allocated PAGES: 23116
